*KEYWORD
*BOUNDARY_PRESCRIBED_MOTION_RIGID_ID
$#      ID                                                               HEADING
         1Impactor_displacement
$#     PID       DOF       VAD      LCID        SF               DEATH     BIRTH
   9000012         3         2       500        1.                  0.        0.
*NODE
 9900001       123.05567      -35.001194       24.660137
 9900002       123.05567      -35.001194       24.660137
 9900003       122.85485      -185.00026       24.161969
 9900004       122.85485      -185.00026       24.161969
*CONSTRAINED_EXTRA_NODES_SET
$
$#     PID      NSID
  10000035         3
   9000035         4
$
*CONTACT_AUTOMATIC_SURFACE_TO_SURFACE_ID
$#     CID                                                                  NAME
         1impactor_foam
$#    SSID      MSID     SSTYP     MSTYP    SBOXID    MBOXID       SPR       MPR
       300   9000012         3         3         0         0         1         1
$#      FS        FD        DC        VC       VDC    PENCHK        BT        DT
       0.3       0.1        1.        0.       20.         0        0.        0.
$#     SFS       SFM       SST       MST      SFST      SFMT       FSF       VSF
       10.        1.        1.        1.        1.        1.        1.        1.
$#    SOFT    SOFSCL    LCIDAB    MAXPAR     SBOPT     DEPTH     BSORT    FRCFRQ
         2       0.1        0.     1.025        3.        5.        0.        1.
$#  PENMAX    THKOPT               SNLOG      ISYM     I2D3D    SLDTHK    SLDSTF
        0.         0                   0         0         0        0.        0.
$#    IGAP    IGNORE    DPRFAC    DTSTIF                        FLANGL
         0         0        0.        0.                            0.
$#   Q2TRI    DTPCHK     SFNBR    FNLSCL    DNLSCL      TCSO    TIEDID    SHLEDG
         0                                                 0         0         1
$#  SHAREC    CPARM8    IPBACK     SRNDE
         0         0         0         0
$   PSTIFF|  IGNROFF|
*CONTACT_AUTOMATIC_SURFACE_TO_SURFACE_ID
$#     CID                                                                  NAME
         2foam_femur
$#    SSID      MSID     SSTYP     MSTYP    SBOXID    MBOXID       SPR       MPR
       300   4736330         3         3         0         0         1         1
$#      FS        FD        DC        VC       VDC    PENCHK        BT        DT
       0.3       0.1        1.        0.       20.         0        0.      1E20
$#     SFS       SFM       SST       MST      SFST      SFMT       FSF       VSF
        0.        0.        0.        0.        0.        0.        0.        0.
$#    SOFT    SOFSCL    LCIDAB    MAXPAR     SBOPT     DEPTH     BSORT    FRCFRQ
         2       0.1        0.     1.025        2.        2.        0.        1.
$#  PENMAX    THKOPT               SNLOG      ISYM     I2D3D    SLDTHK    SLDSTF
        0.         0                   0         0         0        0.        0.
$#    IGAP    IGNORE    DPRFAC    DTSTIF                        FLANGL
         0         0        0.        0.                            0.
$#   Q2TRI    DTPCHK     SFNBR    FNLSCL    DNLSCL      TCSO    TIEDID    SHLEDG
         0                                                 0         0         1
$#  SHAREC    CPARM8    IPBACK     SRNDE
         0         0         0         0
$   PSTIFF|  IGNROFF|
*MAT_LOW_DENSITY_FOAM_TITLE
$#                                                                         TITLE
Foam
$#     MID        RO         E      LCID        TC        HU      BETA      DAMP
         4   1.56E-8      3.38      100.        0.        1.        0.       0.5
$#   SHAPE      FAIL    BVFLAG        ED     BETA1      KCON       REF
        0.        0.        0.        0.        0.        0.        0.
*SET_NODE_GENERAL
$#     SID       DA1       DA2       DA3       DA4    SOLVER
         3        0.        0.        0.        0.          
$#       A        E1
       BOX         2
     DPART  10000035  10000036         0         0         0         0         0
*SET_NODE_GENERAL
$#     SID       DA1       DA2       DA3       DA4    SOLVER
         4        0.        0.        0.        0.          
$#       A        E1
       BOX         1
     DPART   9000035   9000036         0         0         0         0         0
*LOAD_BODY_Z
$#    LCID        SF    LCIDDR        XC        YC        ZC       CID
         5   0.00981         0        0.        0.        0.         0
*DEFINE_CURVE_TITLE
$#                                                                         TITLE
Constant 1
$#    LCID      SIDR      SCLA      SCLO      OFFA      OFFO    DATTYP
         5         0        1.        1.        0.        0.         0
$#                A1                  O1
                  0.                  1.
                500.                  1.
*DATABASE_HISTORY_NODE
$#     ID1       ID2       ID3       ID4       ID5       ID6       ID7       ID8
   9008701   
$
*NODE
 9900010      -6.9537731      -109.89263       24.259243
*CONSTRAINED_EXTRA_NODES_NODE
$#     PID       NID
  10000030   9900010
   9000030   9900009
*SET_NODE_TITLE
$#                                                                         TITLE
Force_applying_node
$#     SID       DA1       DA2       DA3       DA4    SOLVER
         5        0.        0.        0.        0.          
$#    NID1
   9900009
*BOUNDARY_SPC_NODE_ID
$#      ID                                                               HEADING
         1
$#     NID       CID      DOFX      DOFY      DOFZ     DOFRX     DOFRY     DOFRZ
  10015909         0         1         0         0         0         0         0
*END