*KEYWORD
*PART
$#                                                                       HEADING
impactor
$#     PID     SECID       MID     EOSID      HGID      GRAV    ADPOPT      TMID
   9000012   9000012        13         0         0         0         0         0
*SECTION_SOLID_TITLE
$#                                                                         TITLE
impactor
$#   SECID    ELFORM       AET
   9000012         1         0
*MAT_RIGID_TITLE
$#                                                                         TITLE
Rigid Aluminium_CON_4_7
$#     MID        RO         E        PR         N    COUPLE         M  ALIAS/RE
        13    2.7E-6       70.      0.34        0.        0.        0.         0
$#     CMO      CON1      CON2
        1.        4.        7.
$#      A1        A2        A3        V1        V2        V3
        0.        0.        0.        0.        0.        0.
*NODE
 9007558       245.22242      -58.409023       68.647298
 9007559       245.22242      -58.409023       72.647298
 9007560       245.22242      -58.409023       76.647298
 9007561       245.22242      -58.409023       80.647298
 9007562       245.22242      -58.409023       84.647298
 9007563       245.22242      -58.409023       88.647298
 9007564       245.22242      -58.409023       92.647298
 9007565       245.22242      -58.409023       96.647298
 9007566       245.22242      -58.409023        100.6473
 9007567       245.22242      -58.409023        104.6473
 9007568       245.22242      -58.409023        108.6473
 9007569       249.45575      -58.409023        108.6473
 9007570       253.68909      -58.409023        108.6473
 9007571       257.92242      -58.409023        108.6473
 9007572       262.15575      -58.409023        108.6473
 9007573       266.38909      -58.409023        108.6473
 9007574       270.62242      -58.409023        108.6473
 9007575       270.62242      -58.409023        104.6473
 9007576       270.62242      -58.409023        100.6473
 9007577       270.62242      -58.409023       96.647298
$ ... 1338 like lines cut
*ELEMENT_SOLID
 9005670 9000012 9007611 9007654 9007653 9007612 9007655 9007658 9007657 9007656
 9005671 9000012 9007655 9007658 9007657 9007656 9007659 9007662 9007661 9007660
 9005672 9000012 9007659 9007662 9007661 9007660 9007663 9007666 9007665 9007664
 9005673 9000012 9007663 9007666 9007665 9007664 9007667 9007670 9007669 9007668
 9005674 9000012 9007667 9007670 9007669 9007668 9007671 9007674 9007673 9007672
 9005675 9000012 9007671 9007674 9007673 9007672 9007675 9007678 9007677 9007676
 9005676 9000012 9007675 9007678 9007677 9007676 9007679 9007682 9007681 9007680
 9005677 9000012 9007679 9007682 9007681 9007680 9007683 9007686 9007685 9007684
 9005678 9000012 9007683 9007686 9007685 9007684 9007687 9007690 9007689 9007688
 9005679 9000012 9007687 9007690 9007689 9007688 9007691 9007694 9007693 9007692
 9005680 9000012 9007691 9007694 9007693 9007692 9007695 9007698 9007697 9007696
 9005681 9000012 9007695 9007698 9007697 9007696 9007699 9007702 9007701 9007700
 9005682 9000012 9007699 9007702 9007701 9007700 9007703 9007706 9007705 9007704
 9005683 9000012 9007654 9007619 9007652 9007653 9007658 9007708 9007707 9007657
 9005684 9000012 9007658 9007708 9007707 9007657 9007662 9007710 9007709 9007661
 9005685 9000012 9007662 9007710 9007709 9007661 9007666 9007712 9007711 9007665
 9005686 9000012 9007666 9007712 9007711 9007665 9007670 9007714 9007713 9007669
 9005687 9000012 9007670 9007714 9007713 9007669 9007674 9007716 9007715 9007673
 9005688 9000012 9007674 9007716 9007715 9007673 9007678 9007718 9007717 9007677
 9005689 9000012 9007678 9007718 9007717 9007677 9007682 9007720 9007719 9007681
$ ... 994 like lines cut
*END
