*KEYWORD
*PART
$#                                                                       HEADING
distal_linear_bearing
$#     PID     SECID       MID     EOSID      HGID      GRAV    ADPOPT      TMID
   9000030   9000030        10         0         0         0         0         0
*SECTION_SOLID_TITLE
$#                                                                         TITLE
distal_linear_bearing
$    SECID    ELFORM 
   9000030         1         0
*CONSTRAINED_RIGID_BODIES
$#    PIDM      PIDS     IFLAG
   9000035   9000036          
*MAT_RIGID_TITLE
$#                                                                         TITLE
Rigid Aluminium
$#     MID        RO         E        PR         N    COUPLE         M  ALIAS/RE
         3    2.7E-6       70.      0.34        0.        0.        0.         0
$#     CMO
        0.
$       A1        A2        A3        V1        V2        V3 
        0.        0.        0.        0.        0.        0.
*MAT_RIGID_TITLE
$#                                                                         TITLE
Rigid Aluminium_CON_5_7
$#     MID        RO         E        PR         N    COUPLE         M  ALIAS/RE
        10    2.7E-6       70.      0.34        0.        0.        0.         0
$#     CMO      CON1      CON2
        1.        5.        7.
$#      A1        A2        A3        V1        V2        V3
        0.        0.        0.        0.        0.        0.
*MAT_RIGID_TITLE
$#                                                                         TITLE
Rigid_PMMA
$#     MID        RO         E        PR         N    COUPLE         M  ALIAS/RE
        12   1.18E-6       3.1       0.3        0.        0.        0.         0
$#     CMO
        0.
$#      A1        A2        A3        V1        V2        V3
        0.        0.        0.        0.        0.        0.
*NODE
 9900005       392.97702      -185.03975       24.171762
 9900006       392.97702      -185.03975       24.171762
 9900007       392.97746      -35.039758       24.171649
 9900008       392.97746      -35.039758       24.171649
 9900009       522.91589      -110.03968       24.170793
*CONSTRAINED_JOINT_REVOLUTE_ID
$#     JID                                                               HEADING
         1proximal_joint
$#      N1        N2        N3        N4        N5        N6       RPS      DAMP
   9900005   9900006   9900007   9900008         0         0        1.       0.5
$
*CONSTRAINED_EXTRA_NODES_NODE
$#     PID       NID
   9000035   9900005
   9000035   9900007
   9000030   9900006
   9000030   9900008
*NODE
 9000585       426.93637      -50.039721      -35.829192
 9000586       426.93637      -50.039723      -27.829192
 9000587       426.93637      -50.039725      -19.829192
 9000588       426.93637      -50.039727      -11.829192
 9000589       426.93637      -50.039729      -3.8291917
 9000590       426.93637      -50.039731       4.1708083
 9000591       426.93637      -50.039733       12.170808
 9000592       426.93637      -50.039735       20.170808
 9000593       426.93637      -50.039737       28.170808
 9000594       426.93637      -50.039739       36.170808
 9000595       426.93637      -50.039741       44.170808
 9000596       426.93637      -50.039744       52.170808
 9000597       426.93637      -50.039746       60.170808
 9000598       426.93637      -50.039748       68.170808
 9000599       426.93637       -50.03975       76.170808
 9000600       426.93637      -50.039752       84.170808
 9000601       426.93637      -58.039752       84.170806
 9000602       426.93638      -66.039752       84.170804
 9000603       426.93638      -74.039752       84.170802
 9000604       426.93639      -82.039752         84.1708
$ ... 2378 like lines cut
*ELEMENT_SOLID
 9003414 9000035 9000671 9000667 9000666 9000673 9004422 9004425 9004424 9004423
 9003415 9000035 9004422 9004425 9004424 9004423 9004426 9004429 9004428 9004427
 9003416 9000035 9004426 9004429 9004428 9004427 9004430 9004433 9004432 9004431
 9003417 9000035 9004430 9004433 9004432 9004431 9004434 9004437 9004436 9004435
 9003418 9000035 9000673 9000666 9000665 9000674 9004423 9004424 9004439 9004438
 9003419 9000035 9004423 9004424 9004439 9004438 9004427 9004428 9004441 9004440
 9003420 9000035 9004427 9004428 9004441 9004440 9004431 9004432 9004443 9004442
 9003421 9000035 9004431 9004432 9004443 9004442 9004435 9004436 9004445 9004444
 9003422 9000035 9000674 9000665 9000661 9000660 9004438 9004439 9004447 9004446
 9003423 9000035 9004438 9004439 9004447 9004446 9004440 9004441 9004449 9004448
 9003424 9000035 9004440 9004441 9004449 9004448 9004442 9004443 9004451 9004450
 9003425 9000035 9004442 9004443 9004451 9004450 9004444 9004445 9004453 9004452
 9003426 9000035 9000648 9000672 9000675 9000649 9004454 9004457 9004456 9004455
 9003427 9000035 9004454 9004457 9004456 9004455 9004458 9004461 9004460 9004459
 9003428 9000035 9004458 9004461 9004460 9004459 9004462 9004465 9004464 9004463
 9003429 9000035 9004462 9004465 9004464 9004463 9004466 9004469 9004468 9004467
 9003430 9000035 9000672 9000671 9000673 9000675 9004457 9004422 9004423 9004456
 9003431 9000035 9004457 9004422 9004423 9004456 9004461 9004426 9004427 9004460
 9003432 9000035 9004461 9004426 9004427 9004460 9004465 9004430 9004431 9004464
 9003433 9000035 9004465 9004430 9004431 9004464 9004469 9004434 9004435 9004468
$ ... 1544 like lines cut
*PART
$#                                                                       HEADING
distal_cup_holder
$      PID|    SECID|      MID|    EOSID|     HGID|     GRAV|   ADPOPT|     TMID|
$#     PID     SECID       MID     EOSID      HGID      GRAV    ADPOPT      TMID
   9000035   9000035         3         0         0         0         0         0
*SECTION_SOLID_TITLE
$#                                                                         TITLE
distal_cup_holder
$    SECID|   ELFORM|
$#   SECID    ELFORM       AET
   9000035         1         0
*NODE
 9017009       345.97948      -72.007632       24.026854
 9017010       345.97948      -72.843375       16.127776
 9017011       345.97948       -75.30251       8.5757859
 9017012       345.97948      -79.276403       1.7001363
 9017013       345.97948      -84.591743      -4.1992178
 9017014       345.97948       -91.01779      -8.8633439
 9017015       345.97948      -98.282024      -12.075176
 9017016       345.97948      -106.04162      -13.746485
 9017017       345.97948      -113.98093      -13.745401
 9017018       345.97948      -121.74763      -12.097865
 9017019       345.97948      -129.00234      -8.8705375
 9017020       345.97948       -135.4275      -4.2047965
 9017021       345.97948      -140.74149       1.6959796
 9017022       345.97948      -144.66141        8.599737
 9017023       345.97948      -147.17398       16.129722
 9017024       345.97948      -148.01271       24.028852
 9017025       345.97948      -147.17437       31.928002
 9017026       345.97948      -144.71538       39.480079
 9017027       345.97948      -140.74083       46.355292
 9017028       345.97948      -135.42349       52.252833
$ ... 904 like lines cut
*ELEMENT_SOLID
 9011304 9000036 9017010 9017009 9017069 9017074 9017141 9017144 9017143 9017142
 9011305 9000036 9017141 9017144 9017143 9017142 9017145 9017148 9017147 9017146
 9011306 9000036 9017145 9017148 9017147 9017146 9017149 9017152 9017151 9017150
 9011307 9000036 9017149 9017152 9017151 9017150 9017153 9017156 9017155 9017154
 9011308 9000036 9017153 9017156 9017155 9017154 9017157 9017160 9017159 9017158
 9011309 9000036 9017157 9017160 9017159 9017158 9017161 9017164 9017163 9017162
 9011310 9000036 9017074 9017069 9017039 9017048 9017142 9017143 9017166 9017165
 9011311 9000036 9017142 9017143 9017166 9017165 9017146 9017147 9017168 9017167
 9011312 9000036 9017146 9017147 9017168 9017167 9017150 9017151 9017170 9017169
 9011313 9000036 9017150 9017151 9017170 9017169 9017154 9017155 9017172 9017171
 9011314 9000036 9017154 9017155 9017172 9017171 9017158 9017159 9017174 9017173
 9011315 9000036 9017158 9017159 9017174 9017173 9017162 9017163 9017176 9017175
 9011316 9000036 9017012 9017011 9017075 9017073 9017177 9017180 9017179 9017178
 9011317 9000036 9017177 9017180 9017179 9017178 9017181 9017184 9017183 9017182
 9011318 9000036 9017181 9017184 9017183 9017182 9017185 9017188 9017187 9017186
 9011319 9000036 9017185 9017188 9017187 9017186 9017189 9017192 9017191 9017190
 9011320 9000036 9017189 9017192 9017191 9017190 9017193 9017196 9017195 9017194
 9011321 9000036 9017193 9017196 9017195 9017194 9017197 9017200 9017199 9017198
 9011322 9000036 9017011 9017010 9017074 9017075 9017180 9017141 9017142 9017179
 9011323 9000036 9017180 9017141 9017142 9017179 9017184 9017145 9017146 9017183
$ ... 676 like lines cut
*PART
$#                                                                       HEADING
distal_potting
$      PID|    SECID|      MID|    EOSID|     HGID|     GRAV|   ADPOPT|     TMID|
$#     PID     SECID       MID     EOSID      HGID      GRAV    ADPOPT      TMID
   9000036   9000036        12         0         0         0         0         0
*SECTION_SOLID_TITLE
$#                                                                         TITLE
distal_potting
$    SECID|   ELFORM|
$#   SECID    ELFORM       AET
   9000036         1         0
*NODE
 9000389       497.91589      -117.53969       29.170791
 9000394       497.91589      -117.53969       19.170791
 9001031       412.28085      -185.03975       29.170774
 9001032       420.40787      -185.03974       29.170774
 9001033       428.53489      -185.03974       29.170774
 9001034        436.6619      -185.03973       29.170774
 9001035       444.78892      -185.03973       29.170774
 9001036       452.91594      -185.03972       29.170774
 9001037       452.91594      -185.03972       19.170774
 9001038       444.78892      -185.03972       19.170774
 9001039        436.6619      -185.03973       19.170774
 9001040       428.53489      -185.03973       19.170774
 9001041       420.40787      -185.03974       19.170774
 9001042       412.28085      -185.03974       19.170774
 9001043       460.41594      -185.03972       29.170774
 9001044       467.91594      -185.03971       29.170774
 9001045       475.41594      -185.03971       29.170774
 9001046       482.91594       -185.0397       29.170774
 9001047       482.91594       -185.0397       19.170774
 9001048       475.41594      -185.03971       19.170774
$ ... 439 like lines cut
*ELEMENT_SOLID
 9003342 9000030 9001111 9001112 9001109 9001110 9004209 9004210 9004211 9004212
 9003343 9000030 9004209 9004210 9004211 9004212 9004213 9004214 9004215 9004216
 9003344 9000030 9001112 9000389 9000394 9001109 9004210 9004217 9004218 9004211
 9003345 9000030 9004210 9004217 9004218 9004211 9004214 9004219 9004220 9004215
 9003346 9000030 9001037 9001038 9001035 9001036 9004221 9004222 9004223 9004224
 9003347 9000030 9004221 9004222 9004223 9004224 9004225 9004226 9004227 9004228
 9003348 9000030 9001038 9001039 9001034 9001035 9004222 9004229 9004230 9004223
 9003349 9000030 9004222 9004229 9004230 9004223 9004226 9004231 9004232 9004227
 9003350 9000030 9001039 9001040 9001033 9001034 9004229 9004233 9004234 9004230
 9003351 9000030 9004229 9004233 9004234 9004230 9004231 9004235 9004236 9004232
 9003352 9000030 9001040 9001041 9001032 9001033 9004233 9004237 9004238 9004234
 9003353 9000030 9004233 9004237 9004238 9004234 9004235 9004239 9004240 9004236
 9003354 9000030 9001041 9001042 9001031 9001032 9004237 9004241 9004242 9004238
 9003355 9000030 9004237 9004241 9004242 9004238 9004239 9004243 9004244 9004240
 9003356 9000030 9001047 9001048 9001045 9001046 9004245 9004246 9004247 9004248
 9003357 9000030 9004245 9004246 9004247 9004248 9004249 9004250 9004251 9004252
 9003358 9000030 9001048 9001049 9001044 9001045 9004246 9004253 9004254 9004247
 9003359 9000030 9004246 9004253 9004254 9004247 9004250 9004255 9004256 9004251
 9003360 9000030 9001049 9001050 9001043 9001044 9004253 9004257 9004258 9004254
 9003361 9000030 9004253 9004257 9004258 9004254 9004255 9004259 9004260 9004256
$ ... 146 like lines cut
*END
