$
$ANSA_VERSION;22.1.0;
$
$
$ file created by  A N S A  Thu Oct 26 17:59:23 2023
$
$ output from :
$
$ C:/Users/seyedri/OneDrive - Chalmers/Desktop/SAFER HBM Validation/New folder (
$ 1)/tmp_solid.key
$
$ Settings :
$
$ Output format : R13
$
$ Output : Visible
$
$
$
$
*KEYWORD
*NODE
       1-196.89816292182-19.921960837317474.708111043338       0       0
       2-196.89816292182            -21.474.708111043338       0       0
       3-196.06541770407            -21.474.042138530752       0       0
       4-196.06205128632-19.920691889906474.040272697994       0       0
       5-195.04872687217            -21.473.685839019629       0       0
       6-195.05082682496-19.918397757827 473.68619469982       0       0
       7-196.06020951639 -18.84338725253474.039254144234       0       0
       8-196.89816292182-18.844106096151474.708111043338       0       0
       9-194.05148957293            -21.473.675336455683       0       0
      10-193.99286614941-19.917407563873473.684537733394       0       0
      11-195.04353911822-18.841465731908473.684966521089       0       0
      12-196.89816292182-17.767296843521474.708111043338       0       0
      13-196.05502369039-17.767631597343474.036394739057       0       0
      14-193.96221402462-18.841694756281473.689794887704       0       0
      15 -195.0283562042-17.767923442155473.682463482038       0       0
      17-192.97177853936-19.917893793411474.040276338212       0       0
      18-196.04926866379 -16.69181078206474.033236151564       0       0
      19-196.89816292182-16.690983894095474.708111043338       0       0
      20-193.93552460508-17.770009443986473.694623458681       0       0
      21-195.01478737999-16.693555420542473.680290112148       0       0
$ ... 1420 like lines cut
*ELEMENT_SOLID
     366       1
     767     786     787     429     804     802     772     428       0       0
     681       1
     782     786     767     785     799     802     804     796       0       0
     709       1
     438     445     785     767     437     444     796     804       0       0
     710       1
     766     763     758     782     812     810     808     799       0       0
     711       1
     726     766     768     735     820     812     815     823       0       0
     712       1
     781     783     775      23      17     826     828      24       0       0
     714       1
     788     789     787     786     832     419     772     802       0       0
     715       1
     758     764     788     786     808     835     832     802       0       0
     716       1
     761     764     758     763     837     835     808     810       0       0
     718       1
     765     721     784     783     841     843     846     826       0       0
$ ... 2320 like lines cut
*PART
Default PSOLID Property
         1         1         1                             0         0          
*SECTION_SOLID_TITLE
Default PSOLID Property
         1         1
*MAT_RIGID_TITLE
rigid_potting_surface
         1     .0002       10.       0.3        0.        0.        0.
       0.0        0.        0.
        0.        0.        0.        0.        0.        0.
$ANSA_COLOR;1;SECTION_SOLID;.796078443527222;.250980406999588;.011764706112444;1
$.;
$ANSA_COLOR;1;MAT20 MAT_RIGID;.843137264251709;.564705908298492;.094117648899555
$;1.;
$ANSA_USER_ATTRIBUTES;SECTION_SOLID;User/cad_material;TEXT;RW;YES;;;
$ANSA_PART;GROUP;ID;1;NAME;thread_rod.key;BELONGS_HERE;YES;PID_OFFSET;0;COLOR;20
$1;236;118;0;IS_COLOR_ACTIVE;0;PART_TYPE;Undefined;ATTRIBUTES;2;DM/File Type;ANS
$A;DM/Status;WIP;CONTAINS;ANSAPART;3;
$ANSA_PART;PART;ID;3;MID;1;NAME;rigid_shell;BELONGS_HERE;YES;STUDY_VERSION;0;PID
$_OFFSET;0;COLOR;206;168;77;0;IS_COLOR_ACTIVE;1;PART_TYPE;Undefined;ATTRIBUTES;2
$;DM/File Type;ANSA;DM/Status;WIP;CONTAINS;SECTION_SOLID;1;
*END
