*KEYWORD
*NODE
 6835072 303.52499999748            -36.           -22.7       0       0
 6835073 307.27499999748            -36.           -22.7       0       0
 6835074 311.02499999748            -36.           -22.7       0       0
 6835075 314.77499999748            -36.           -22.7       0       0
 6835076 318.52499999748            -36.           -22.7       0       0
 6835077 322.27499999748            -36.           -22.7       0       0
 6835078 326.02499999748            -36.           -22.7       0       0
 6835079 329.77499999748            -36.           -22.7       0       0
 6835080 333.52499999748            -36.           -22.7       0       0
 6835081 303.52499999748            -36.           -18.2       0       0
 6835082 307.27499999748            -36.           -18.2       0       0
 6835083 311.02499999748            -36.           -18.2       0       0
 6835084 314.77499999748            -36.           -18.2       0       0
 6835085 318.52499999748            -36.           -18.2       0       0
 6835086 322.27499999748            -36.           -18.2       0       0
 6835087 326.02499999748            -36.           -18.2       0       0
 6835088 329.77499999748            -36.           -18.2       0       0
 6835089 333.52499999748            -36.           -18.2       0       0
 6835090 303.52499999748            -36.           -13.7       0       0
 6835091 307.27499999748            -36.           -13.7       0       0
$ ... 7406 like lines cut
*ELEMENT_SHELL
 7573104       4 6835072 6835225 6835226 6835073
 7573105       4 6835073 6835226 6835227 6835074
 7573106       4 6835074 6835227 6835228 6835075
 7573107       4 6835075 6835228 6835229 6835076
 7573108       4 6835076 6835229 6835230 6835077
 7573109       4 6835077 6835230 6835231 6835078
 7573110       4 6835078 6835231 6835232 6835079
 7573111       4 6835079 6835232 6835233 6835080
 7573112       4 6835225 6835378 6835379 6835226
 7573113       4 6835226 6835379 6835380 6835227
 7573114       4 6835227 6835380 6835381 6835228
 7573115       4 6835228 6835381 6835382 6835229
 7573116       4 6835229 6835382 6835383 6835230
 7573117       4 6835230 6835383 6835384 6835231
 7573118       4 6835231 6835384 6835385 6835232
 7573119       4 6835232 6835385 6835386 6835233
 7573120       4 6836143 6836296 6836297 6836144
 7573121       4 6836144 6836297 6836298 6836145
 7573122       4 6836145 6836298 6836299 6836146
 7573123       4 6836146 6836299 6836300 6836147
$ ... 1004 like lines cut
*ELEMENT_SOLID
 7570800       2
 6835072 6835225 6835234 6835081 6835073 6835226 6835235 6835082       0       0
 7570801       2
 6835073 6835226 6835235 6835082 6835074 6835227 6835236 6835083       0       0
 7570802       2
 6835074 6835227 6835236 6835083 6835075 6835228 6835237 6835084       0       0
 7570803       2
 6835075 6835228 6835237 6835084 6835076 6835229 6835238 6835085       0       0
 7570804       2
 6835076 6835229 6835238 6835085 6835077 6835230 6835239 6835086       0       0
 7570805       2
 6835077 6835230 6835239 6835086 6835078 6835231 6835240 6835087       0       0
 7570806       2
 6835078 6835231 6835240 6835087 6835079 6835232 6835241 6835088       0       0
 7570807       2
 6835079 6835232 6835241 6835088 6835080 6835233 6835242 6835089       0       0
 7570808       2
 6835081 6835234 6835243 6835090 6835082 6835235 6835244 6835091       0       0
 7570809       2
 6835082 6835235 6835244 6835091 6835083 6835236 6835245 6835092       0       0
$ ... 10272 like lines cut
*PART
proximal_potting
         1         1         1                             0         0          
*SECTION_SOLID_TITLE
proximal_potting
         1         1
*PART
distal_potting
         2         2         2                             0         0          
*SECTION_SOLID_TITLE
distal_potting
         2         1
*PART
proximal_fixture
         3         3         3                             0         0          
*SECTION_SHELL_TITLE
proximal_fixture
         3         2        1.        2.        1.         0         0
        1.        1.        1.        1.                            0.          
*PART
distal_fixture
         4         4         4                             0         0          
*SECTION_SHELL_TITLE
distal_fixture
         4         2        1.        2.        1.         0         0
        1.        1.        1.        1.                            0.          
*PART
impactor
         5         5         5                             0         0          
*SECTION_SOLID_TITLE
impactor
         5         1
*PART
support
         6         6         6                             0         0          
*SECTION_SOLID_TITLE
support
         6         1
*LOAD_BODY_Z
         2   0.00981         0                                        
*INITIAL_VELOCITY_GENERATION
         5         2        0.        0.        0.       -2.         0         0
      100.-2.3989E-722.9913136        0.        0.        0.         1         0
*INITIAL_VELOCITY_GENERATION_START_TIME
$ANSA_ID;2;
&pre_sim2
*MAT_ELASTIC_TITLE
proximal_potting_bondo_lowmass
         1     1.E-8       0.9       0.3        0.        0.        0.
*MAT_ELASTIC_TITLE
distal_potting_bondo_lowmass
         2     1.E-8       0.9       0.3        0.        0.        0.
*MAT_RIGID_TITLE
proximal_fixture_steel_lowmass
         3     1.E-8      210.       0.3        0.        0.        0.
       1.0        2.        1.
        0.        0.        0.        0.        0.        0.
*MAT_RIGID_TITLE
distal_fixture_steel_lowmass
         4     1.E-8      210.       0.3        0.        0.        0.
       1.0        2.        1.
        0.        0.        0.        0.        0.        0.
*MAT_RIGID_TITLE
impactor_steel_16kg
         5.000176789      210.       0.3        0.        0.        0.
       1.0        4.        7.
        0.        0.        0.        0.        0.        0.
*MAT_RIGID_TITLE
support_steel
         6   7.85E-6      210.       0.3        0.        0.        0.
       1.0        4.        7.
        0.        0.        0.        0.        0.        0.
*DEFINE_CURVE_TITLE
Gravitation
         2         0        1.        1.        0.        0.         0         0
                  0.                  1.
               5000.                  1.
*END
