*KEYWORD
*NODE
99000001       3911.5579715.3675239484561074.77605152111       0       0
99000002       4333.4468714.4348726652921075.24142156885       0       0
99000008       3964.8337701.3336862122511330.03739529317       0       0
99000009        4281.856701.6806338698021330.95385739462       0       0
99000010       4234.5308731.5825891208271490.10230188338       0       0
99000011       4011.3948731.6533712561561489.55200718427       0       0
99000014        4122.998       890.52002       1279.3199       0       0
99000020        4281.856701.6806338698022830.95385739462       0       0
99000021       3964.8337701.3336862122512830.03739529317       0       0
99000030        4281.856701.6806338698022830.95385739462       0       0
99000031       3964.8337701.3336862122512830.03739529317       0       0
*ELEMENT_BEAM
9900000199000000 154057499000001                                                
9900000299000000 164063199000002                                                
9900000599000000 220506799000009                                                
9900000699000000 219727199000008                                                
9900000999000000 220174499000010                                                
9900001099000000 219405099000011                                                
9900001399000000 410000199000014                                                
*ELEMENT_SEATBELT
990000209900002099000030 2198753                      0.
990000219900002099000031 2190951                      0.
*ELEMENT_SEATBELT_RETRACTOR
  99000021  99000020  99000020  99000001                                        
        0.        0.  99000021  99000021      100.
  99000031  99000021  99000021  99000001                                        
        0.        0.  99000021  99000021      100.
*ELEMENT_SEATBELT_SENSOR
  99000001         3         0
      350.
*PART
Reposition springs
$      PID|    SECID|      MID|         |     HGID|     GRAV|         |     TMID|
  99000000  99000000  99000000                             0                    
*SECTION_BEAM_TITLE
Reposition springs
$    SECID|   ELFORM|     SHRF|  QR/IRID|      CST|    SCOOR|      NSM|
  99000000         6                                      0.          
$      VOL|     INER|      CID|       CA|   OFFSET|    RRCON|    SRCON|    TRCON|
        1.        1.                  0.        0.        0.        0.        0.
*PART
SECTION_SEATBELT
  99000020  99000020  99000020                    
*SECTION_SEATBELT_TITLE
SECTION_SEATBELT
  99000020                    
*BOUNDARY_SPC_NODE_ID
        11                                                                      
  99000001                   1         1         1         1         1         1
        12                                                                      
  99000002                   1         1         1         1         1         1
        13                                                                      
  99000009                   1         1         1         1         1         1
        14                                                                      
  99000008                   1         1         1         1         1         1
        23                                                                      
  99000010                   1         1         1         1         1         1
        24                                                                      
  99000011                   1         1         1         1         1         1
        25                                                                      
  99000014                   1         1         1         1         1         1
        26                                                                      
  99000020                   1         1         1         1         1         1
        27                                                                      
  99000021                   1         1         1         1         1         1
*MAT_CABLE_DISCRETE_BEAM_TITLE
Reposition springs
$      MID|       RO|        E|     LCID|       F0|   TMAXF0|    TRAMP|    IREAD|
  99000000     1.E-6        1.               0.090      351.       10.         0
*MAT_SEATBELT_TITLE
Roof mounted wires
  99000020    0.0002  99000020  99000020       5.0        0.                  0.
*DEFINE_CURVE_TITLE
Belt curve
  99000020         0        1.        1.        0.        0.         0         0
                  0.                  0.
                0.01                 10.
*DEFINE_CURVE_TITLE
Retractor Load curve
  99000021         0        1.        1.        0.        0.         0         0
                  0.               0.001
                  1.                  1.
$ANSA_ID;5;
*DATABASE_HISTORY_BEAM
  99000001  99000002  99000006  99000005  99000009  99000010  99000013
$ANSA_ID;1;
*DEFINE_ELEMENT_DEATH_BEAM_SET
  99000005      351.                                        
*SET_BEAM
  99000005                                                  
  99000001  99000002  99000005  99000006  99000009  99000010  99000013
*END
