$
$ANSA_VERSION;22.1.0;
$
$
$ file created by  A N S A  Mon Jun 19 14:33:48 2023
$
$ output from :
$
$ C:/Work/SOT/SAFER_HBM_validation/Full-body-GS2-Sled-test-crandell-2011/Untitle
$ d
$
$ Settings :
$
$ Output format : R13
$
$ Output : All
$
$
$
$
$ANSA_COLOR;Chest_measurement.key;INCLUDE;.843137264251709;.215686276555061;.309
$803932905197;1.;
*KEYWORD
*NODE
99010001      -74.749084  -4.9583134E-14       -392.7163       0       0
99010002       -54.71962          -40.96      -345.28915       0       0
99010003       -54.71962           40.96      -345.28915       0       0
99010004      -41.303295         -99.726        -233.422       0       0
99010005       -39.93684          97.034      -232.13077       0       0
99010006       -207.1571               0      -339.24152       0       0
99010007       -187.1571               0      -339.24152       0       0
99010008       -207.1571             20.      -339.24152       0       0
*ELEMENT_BEAM_ORIENTATION
99010001990000119901000699010007                                                
        0.        0.        1.
99010002990000119901000699010008                                                
        0.        0.        1.
*ELEMENT_MASS
9901000399010004           0.001
9901000499010002           0.001
9901000599010003           0.001
9901000699010001           0.001
9901000799010005           0.001                                           
*CONTACT_TIED_NODES_TO_SURFACE_OFFSET_ID
$       ID|                                                                 NAME|
99000011  Chest measure nodes to ribcage                                        
$     SSID|     MSID|     STYP|   MSTYPE|   SBOXID|   MBOXID|      SPR|      MPR|
  99000012  99000011         4         2                             0         0
$       FS|       FD|       DC|       VC|      VDC|   PENCHK|       BT|       DT|
                                                           0                    
$      SFS|      SFM|      SST|      MST|     SFST|     SFMT|      FSF|      VSF|
                            2.        5.                                        
*PART
T8 measuring
$      PID|    SECID|      MID|         |     HGID|     GRAV|         |     TMID|
  99000011  99000011  99000011                             0                    
*SECTION_BEAM_TITLE
T8 measuring
$    SECID|   ELFORM|     SHRF|  QT/IRID|      CST|         |      NSM|
  99000011         1        1.         2        0.                    
$      TS1|      TS2|      TT1|      TT2|    NSLOC|    NTLOC|
        1.        1.       0.1       0.1        0.        0.
*DEFINE_COORDINATE_NODES_TITLE
T8 measuring CSx
  99000011  99010006  99010007  99010008         1X         
*MAT_RIGID_TITLE
T8 measuring
$      MID|       RO|        E|       PR|        N|   COUPLE|        M| ALIAS_RE|
  99000011     1.E-6        1.       0.3        0.        0.        0.
$      CMO|     CON1|     CON2|
       0.0        0.        0.
$       A1|       A2|       A3|       V1|       V2|       V3|
        0.        0.        0.        0.        0.        0.
*DATABASE_HISTORY_NODE_LOCAL_ID
  99010001   4701830         2         0
Sternum                                                               
*DATABASE_HISTORY_NODE_LOCAL_ID
  99010002   4701830         2         0
Upper left                                                            
*DATABASE_HISTORY_NODE_LOCAL_ID
  99010003   4701830         2         0
Upper right                                                           
*DATABASE_HISTORY_NODE_LOCAL_ID
  99010004   4701830         2         0
Lower left                                                            
*DATABASE_HISTORY_NODE_LOCAL_ID
  99010005   4701830         2         0
Lower right                                                           
*SET_PART_LIST
  99000011                                        
   4700010   4710401   4710402   4760401   4760402
*SET_NODE_LIST
  99000012                                        
  99010001  99010002  99010003  99010004  99010005
$ANSA_COLOR;99000011;SECTION_BEAM_ELFORM_1;.745098054409027;.839215695858002;.77
$6470601558685;1.;
$ANSA_COLOR;99000011;MAT20 MAT_RIGID;.858823537826538;.368627458810806;.23921568
$6917305;1.;
*END
