$
$ANSA_VERSION;22.1.0;
$
$
$ file created by  A N S A  Tue Jun 20 15:25:16 2023
$
$ output from :
$
$ C:/Work/SOT/SAFER_HBM_validation/Full-body-GS2-Sled-test-crandell-2011/S10/Unt
$ itled
$
$ Settings :
$
$ Output format : R13
$
$ Output : All
$
$
$
$
$ANSA_COLOR;GS2_belt.key;INCLUDE;.756862759590149;.105882354080677;0.87058824300
$766;1.;
*KEYWORD
*PARAMETER
$    PRMR1|     VAL1|
R BELTLL1        2.7
R BELTLL2        2.7
*PARAMETER_EXPRESSION
$    PRMR1|                                                          EXPRESSION1|
R BELTLSC BELTLL2/BELTLL1                                                       
*PARAMETER
$    PRMR1|     VAL1|
R TRIGG         350.
R Pullin         60.
R Tdelay_s       30.
R Tdelay_l       30.  
*NODE
       1-22.508680417917-198.2642305449525.7221674666393       0       0
       2-257.58737443091240.098144573351-551.29576074944       0       0
       3-245.56639982111231.238127447803-546.33213368706       0       0
       4-233.53384477652222.305447277028-541.23763839274       0       0
       5-19.859937094275-196.1007845672914.1142363665037       0       0
       6-16.740558011673-193.898811817272.73935144482174       0       0
       7-13.621145818291-191.69686820693-8.6354097579992       0       0
       8 -10.50170045975-189.49495338182-20.010049026557       0       0
       9-7.3822218706185-187.29306697971-31.384568184215       0       0
      10-4.2496219427773-185.08157595158-42.808465456185       0       0
      11-1.0905541112426-182.52720991055-54.087213283581       0       0
      122.06690330217738-179.04185776949-65.818870357257       0       0
      135.21517313017228-175.75504373987-76.416387813442       0       0
      147.70649210591208-171.32999351122-86.989686196732       0       0
      15 10.819662224158 -166.5782302378-98.413242745507       0       0
      1614.4834948292355-161.19835037407-110.61230495796       0       0
      1719.5747764134696-154.78112584161-122.18958882148       0       0
      1823.9182861015156-146.42659833504-131.77828057574       0       0
      1929.0887840417595-136.56032822555-140.16277235586       0       0
      2034.2035355264779-126.93764113615-148.12147855642       0       0
$ ... 1687 like lines cut
*CONSTRAINED_JOINT_REVOLUTE_ID
  91001546                                                                      
  91001720  91001719  91001717  91001718                            0.        0.
*CONSTRAINED_NODAL_RIGID_BODY
      2009               19991                   0         0         0
      2034               19990                   0         0         0
  91002099               19989                   0         0         0
  91002101               19988                   0         0         0
*ELEMENT_BEAM_ORIENTATION
91000000900010009100000091000001                                                
        1.        0.        0.
91000001900010009100000191001765                                                
        1.        0.        0.
*ELEMENT_DISCRETE
91001541900010209100140491001715                      1.       0              0.
91001542900010199100140491001716                      1.       0              0.
92001542900010199100247291002473                      1.       0              0.
*ELEMENT_MASS
9100154391001715            0.01
9100154491001404            0.01
9100154591001716            0.01
*ELEMENT_SEATBELT
    177290001016       1       5                      0.      64      63
    177390001015       2       3                      0.9100219491002193
    177490001015       3       4                      0.9100219591002194
    177590001016       5       6                      0.      65      64
    177690001016       6       7                      0.      66      65
    177790001016       7       8                      0.      67      66
    177890001016       8       9                      0.      68      67
    177990001016       9      10                      0.      69      68
    178090001016      10      11                      0.      70      69
    178190001016      11      12                      0.      71      70
    178290001016      12      13                      0.      72      71
    178390001016      13      14                      0.      73      72
    178490001016      14      15                      0.      74      73
    178590001016      15      16                      0.      75      74
    178690001016      16      17                      0.      76      75
    178790001016      17      18                      0.      77      76
    178890001016      18      19                      0.      78      77
    178990001016      19      20                      0.      79      78
    179090001016      20      21                      0.      80      79
    179190001016      21      22                      0.      81      80
$ ... 516 like lines cut
$ 91002095900010179100247291002473                      0.
91002096900010179100247391002474                      0.
91002097900010179100247491002475                      0.
91002098900010179100247591002476                      0.
91002100900010179100247791001715                      0.
*ELEMENT_SHELL
910000029000100591000003910000049100000591000006
910000039000100591000007910000089100000991000010
910000049000100591000011910000129100001391000014
910005899000100291000750910007519100075291000752
910005909000100291000753910007509100075291000754
910005919000100291000755910007539100075491000754
910005929000100291000756910007519100075091000757
910005939000100291000757910007589100075691000756
910005949000100291000759910007539100075591000760
910005959000100291000757910007509100076191000761
910005969000100291000762910007619100075091000753
910005979000100291000759910007629100075391000753
910005989000100291000760910007639100075991000759
910005999000100291000764910007589100075791000765
910006009000100291000761910007669100076591000757
910006019000100291000767910007629100075991000768
910006029000100291000763910007699100076891000759
910006039000100291000770910007649100076591000765
910006049000100291000771910007659100076691000766
910006059000100291000766910007679100077291000771
$ ... 935 like lines cut
*ELEMENT_SEATBELT_PRETENSIONER
  90000012         4  90000001                              
  90000002        0.  90000012
  90000013         4  90000001                              
  90000001        0.  90000013
*ELEMENT_SEATBELT_RETRACTOR
  90000001  91001723  91001547  90000002                                        
&Tdelay_l             90000001  90000002       15.
  90000002  91000016  91002087  90000002                                        
&Tdelay_s             90000001  90000002       15.
*ELEMENT_SEATBELT_SENSOR
  90000001         3         0
        0.
  90000002         3         0
&TRIGG                                 
*CONSTRAINED_EXTRA_NODES_NODE
  90001000  91000016         0
  90001005  91001720         0
  90001005  91001717         0
  90001011  91001719         0
  90001011  91001718         0
  90001005  91001723         0
*CONSTRAINED_RIGID_BODIES
  90001002  90001000         0
*PART
GS2 D-ring attachment
$      PID|    SECID|      MID|         |     HGID|     GRAV|         |     TMID|
  90001000  90001000  90001000                             0                    
*SECTION_BEAM_TITLE
GS2 D-ring attachment
$    SECID|   ELFORM|     SHRF|  QT/IRID|      CST|         |      NSM|
  90001000         1        1.         2        1.                    
$      TS1|      TS2|      TT1|      TT2|    NSLOC|    NTLOC|
       10.       10.        5.        5.        0.        0.
*PART
GS2 Sled D-ring height adjuster
$      PID|    SECID|      MID|         |     HGID|     GRAV|   ADPOPT|     TMID|
  90001002  90001002  90001000                             0         0          
*SECTION_SHELL_TITLE
GS2 Sled D-ring height adjuster
$    SECID|   ELFORM|     SHRF|      NIP|    PROPT|  QR/IRID|    ICOMP|
  90001002         2        1.        2.        1.         0         0
$       T1|       T2|       T3|       T4|     NLOC|    MAREA|     IDOF|   EDGSET|
        1.        1.        1.        1.                            0.          
*PART
GS2 Sled-Belt attachment
$      PID|    SECID|      MID|         |     HGID|     GRAV|   ADPOPT|     TMID|
  90001005  90001005  90001000                             0         0          
*SECTION_SHELL_TITLE
GS2 Sled-Belt attachment
$    SECID|   ELFORM|     SHRF|      NIP|    PROPT|  QR/IRID|    ICOMP|
  90001005         2        1.        2.        1.         0         0
$       T1|       T2|       T3|       T4|     NLOC|    MAREA|     IDOF|   EDGSET|
        1.        1.        1.        1.                            0.          
*PART
GS2 Retractor extention
$      PID|    SECID|      MID|         |     HGID|     GRAV|   ADPOPT|     TMID|
  90001011  90001011  90001000                             0         0          
*SECTION_SHELL_TITLE
GS2 Retractor extention
$    SECID|   ELFORM|     SHRF|      NIP|    PROPT|  QR/IRID|    ICOMP|
  90001011         2        1.        2.        1.         0         0
$       T1|       T2|       T3|       T4|     NLOC|    MAREA|     IDOF|   EDGSET|
        1.        1.        1.        1.                            0.          
*PART
GS2 Shoulder belt 2D seatbelt
$      PID|    SECID|      MID|         |     HGID|     GRAV|   ADPOPT|     TMID|
  90001015  90001015  90001015                             0         0          
*SECTION_SHELL_TITLE
GS2 Shoulder belt 2D seatbelt
$    SECID|   ELFORM|     SHRF|      NIP|    PROPT|  QR/IRID|    ICOMP|
  90001015         9        1.        2.        1.         0         0
$       T1|       T2|       T3|       T4|     NLOC|    MAREA|     IDOF|   EDGSET|
        1.        1.        1.        1.                            0.  90000012
*PART
GS2 Lap belt 2D seatbelt
$      PID|    SECID|      MID|         |     HGID|     GRAV|   ADPOPT|     TMID|
  90001016  90001016  90001015                             0         0          
*SECTION_SHELL_TITLE
GS2 Lap belt 2D seatbelt
$    SECID|   ELFORM|     SHRF|      NIP|    PROPT|  QR/IRID|    ICOMP|
  90001016         9        1.        2.        1.         0         0
$       T1|       T2|       T3|       T4|     NLOC|    MAREA|     IDOF|   EDGSET|
        1.        1.        1.        1.                            0.  90000013
*PART
GS2 Seatbelt 1D elements
$      PID|    SECID|      MID|         |     HGID|
  90001017  90001017  90001017                    
*SECTION_SEATBELT_TITLE
GS2 Seatbelt 1D elements
$    SECID|     AREA|    THICK|
  90001017                    
*PART
GS2 Seatbelt load limiter
$      PID|    SECID|      MID|         |     HGID|     GRAV|         |     TMID|
  90001018  90001018  90001018                             0                    
*SECTION_DISCRETE_TITLE
GS2 Seatbelt load limiter
$    SECID|      DRO|       KD|       V0|       CL|    FDefl|
  90001018         0        0.        0.        0.        0.
$      CDL|      TDL|
        0.        0.
*PART
GS2 Lap belt end stiffness
$      PID|    SECID|      MID|         |     HGID|     GRAV|         |     TMID|
  90001019  90001019  90001019                             0                    
*SECTION_DISCRETE_TITLE
GS2 Lap belt end stiffness
$    SECID|      DRO|       KD|       V0|       CL|    FDefl|
  90001019         0        0.        0.        0.        0.
$      CDL|      TDL|
        0.        0.
*PART
GS2 Shoulder belt end stiffness
$      PID|    SECID|      MID|         |     HGID|     GRAV|         |     TMID|
  90001020  90001020  90001019                             0                    
*SECTION_DISCRETE_TITLE
GS2 Shoulder belt end stiffness
$    SECID|      DRO|       KD|       V0|       CL|    FDefl|
  90001020         0        0.        0.        0.        0.
$      CDL|      TDL|
        0.        0.
*MAT_RIGID_TITLE
GS2 Belt rigid
$      MID|       RO|        E|       PR|        N|   COUPLE|        M| ALIAS_RE|
  90001000   7.85E-6      210.       0.3        0.        0.        0.
$      CMO|     CON1|     CON2|
       0.0                    
$       A1|       A2|       A3|       V1|       V2|       V3|
        0.        0.        0.        0.        0.        0.
*MAT_SEATBELT_TITLE
Seatbelt material 2D
$      MID|     MPUL|    LLCID|    ULCID|     LMIN|      CSE|     DAMP|        E|
  90001015    0.0002  90000006  90000005       4.9        2.       0.1          
*MAT_SEATBELT_TITLE
Seatbelt material
$      MID|     MPUL|    LLCID|    ULCID|     LMIN|      CSE|     DAMP|        E|
  90001017    0.0002  90000006  90000005       4.9                              
*MAT_SPRING_GENERAL_NONLINEAR_TITLE
Load limiter
$      MID|     LCDL|     LCDU|     BETA|      TYI|      CYI|
  90001018  90000008  90000007        0.        0.        0.
*MAT_SPRING_INELASTIC_TITLE
Lap belt slack
$      MID|     LCFD|       KU|      CTF|
  90001019  90000009        0.      -1.0
*DEFINE_CURVE_TITLE
retractor loading curve
  90000001         0        1.        1.        0.        0.         0         0
                  0.                 .02
                  1.                 1.1
*DEFINE_CURVE_TITLE
retractor unloading curve
  90000002         0        1.      100.        0.        0.         0         0
                  0.                  0.
                  1.                  1.
*DEFINE_CURVE_TITLE
Seat belt unloading curve
  90000005         0  0.001724        1.        0.        0.         0         0
                  0.                  0.
            0.772383           0.0119366
           1.5447659           0.0432803
           2.3171489           0.0827625
           3.0895319           0.1336385
           3.8619149            0.197536
           4.6342978           0.2565504
           5.4066806           0.3432355
           6.1790638           0.4217821
           6.9514465           0.5182334
           7.7238297           0.6081738
            8.496213           0.7225296
           9.2685957           0.8401407
          10.0409784           0.9626349
          10.8133612           1.0867568
          11.5857449           1.2125064
          12.3581276           1.3577882
          13.1305103           1.5209745
          13.9028931           1.6695117
$ ... 22 like lines cut
*DEFINE_CURVE_TITLE
Seat belt loading curve
  90000006         0  0.001724        1.        0.        0.         0         0
                  0.                  0.
           0.8269959                 0.1
           1.5252613                0.25
           2.3171489           0.4276646
           3.0895319           0.5501588
           3.8619149           0.6889299
           4.6342978           0.8602546
           5.4066806           1.0543671
           6.1790638           1.2712671
           6.9514465           1.5076993
           7.7238297           1.7718022
            8.496213           2.0359051
           9.2685957           2.3244233
          10.0409784           2.6292183
          10.8133612           2.9307582
          11.5857449           3.2225318
          12.3581276           3.5077946
          13.1305103           3.7946851
          13.9028931           4.0685539
$ ... 28 like lines cut
*DEFINE_CURVE_TITLE
80020  SHOULDER LOAD LIMITER UNLOADING
  90000007         0        1.        1.        0.        0.         0          
                 -2.                -20.
                  0.                  0.
                  2.                 20.
*DEFINE_CURVE_TITLE
80021  SHOULDER LOAD LIMITER LOADING
  90000008         0        2.        1.        0.        0.         0          
                  0.                  0.
                 4.8                  1.
                 6.4                  2.
                7.04                  3.
                  8.                  8.
                 8.8                 20.           
*DEFINE_CURVE_TITLE
80022  RIGHT ANCH END PART
  90000009         0        2.        1.        0.        0.         0          
                  0.                  0.
                 4.8                  1.
                 6.4                  2.
                7.04                  3.
                  8.                  8.
                 8.8                 20.
*DEFINE_CURVE_TITLE
80023  LAP LOAD LIMITER LOADING
  90000010         0        1.        1.        0.        0.         0          
                  0.                  0.
                  1.                 3.6
                 45.                 3.8
                 91.                  8.
*DEFINE_CURVE_TITLE
Pretension curve
  90000012         0        1.        1.        0.        0.         0         0
                  0.                0.01
                300.                0.01
                350.                  0.
               1000.                  0.
*DEFINE_CURVE_TITLE
Pretension curve lap belt
  90000013         0        1.        1.        0.        0.         0         0
                  0.                 0.1
                300.                 0.1
                350.                  0.
               1000.                  0.
*SET_NODE_LIST
     19988                                        
  91002477  91002192  91002260  91002328  91002396  91002464
*SET_NODE_LIST
     19989                                        
  91002476         2  91002193  91002261  91002329  91002397
*SET_NODE_LIST
     19990                                        
       302        62       121       180       239       298
*SET_NODE_LIST
     19991                                        
       301         1        63       122       181       240
*SET_NODE_LIST_TITLE
Component_2_Seatbelt_EDGSET_Section_2001196
  90000012                                        
         2  91002193  91002261  91002329  91002397
*SET_NODE_LIST_TITLE
Component_2_Seatbelt_EDGSET_Section_2001198
  90000013                                        
         1        63       122       181       240
$ANSA_COLOR;90001000;SECTION_BEAM_ELFORM_1;.772549033164978;.521568655967712;0.7
$843137383461;1.;
$ANSA_COLOR;90001002;SECTION_SHELL;.862745106220245;0.26274511218071;.1960784345
$86525;1.;
$ANSA_COLOR;90001005;SECTION_SHELL;.921568632125854;0.34901961684227;.3568627536
$29684;1.;
$ANSA_COLOR;90001011;SECTION_SHELL;.909803926944733;.572549045085907;.2784313857
$55539;1.;
$ANSA_COLOR;90001015;SECTION_SHELL;.772549033164978;.521568655967712;0.784313738
$3461;1.;
$ANSA_COLOR;90001016;SECTION_SHELL;.878431379795074;.454901963472366;.6627451181
$41174;1.;
$ANSA_COLOR;90001017;SECTION_SEATBELT;0.95686274766922;.745098054409027;.5647059
$08298492;1.;
$ANSA_COLOR;90001018;SECTION_DISCRETE;.549019634723663;.749019622802734;.7215686
$44046783;1.;
$ANSA_COLOR;90001019;SECTION_DISCRETE;.992156863212585;.603921592235565;.4392156
$89897537;1.;
$ANSA_COLOR;90001020;SECTION_DISCRETE;.329411774873734;1.;.623529434204102;1.;
$ANSA_COLOR;90001000;MAT20 MAT_RIGID;.678431391716003;.423529416322708;.10588235
$4080677;1.;
$ANSA_COLOR;90001015;MAT_B01 MAT_SEATBELT;.796078443527222;.772549033164978;.498
$039215803146;1.;
$ANSA_COLOR;90001017;MAT_B01 MAT_SEATBELT;.701960802078247;0.30588236451149;.976
$470589637756;1.;
$ANSA_COLOR;90001018;MAT205 MAT_SPRING_GENERAL_NONLINEAR;.643137276172638;.10980
$3922474384;0.14509804546833;1.;
$ANSA_COLOR;90001019;MAT207 MAT_SPRING_INELASTIC;.996078431606293;.7568627595901
$49;.505882382392883;1.;
$ANSA_SEATBELT;ID;9000000;NAME;Shoulder belt;COLOR;158;53;107;100;DISABLE_P2W;0;
$PROP_CONTAINS;SECTION_SHELL(1370120,1713200,1983020,1983120);PROP_NAMES;4;left_
$pelvis_skin;left_thorax_skin;right_thorax_skin;right_neck_skin;PROP_IDS;4;13701
$20;1983120;1983020;1713200;CONTACT_NAME;;CREATE_CNCT;0;AUTO_RECREATE;0;USE_REAL
$_THICKNESS;0;THICKNESS_FACTOR;1.;APPLY_CONSTANT_WIDTH;1;SMOOTH_BELT;0;UNFOLD_BE
$LT;0;CHECK_QUALITY;1;BELT_TYPE;1;KEEP_ID_RANGE;1;N_RBODY_CONS_SET;0;MAT_ORIENT;
$0;NUM_OF_COMPONENTS;1;COMP_NAME;Shoulder;POINTS_NAME;SBPoint;INDEX;0;GENTYPE;0;
$FLIPPED_ENTRY;0;FLIPPED_EXIT;0;LENGTH_1;150.;LENGTH_2;10.;EL_LENGTH;12.;EL_OFFS
$ET;4.;NUM_OF_SHELLS;4;EXTEND_SBLTS;0;CREATE_TRIAS_AT_END;0;CREATE_TRIAS_AT_STAR
$T;0;IS_FROZEN;0;IS_MEMBRANE;0;STATUS_ERROR;0;CREATE_RIGID_MASTER;1;1;PSHELL_NAM
$E;GS2 Shoulder belt 2D seatbelt;PSHELL_ID;90001015;PSBLT_NAME;GS2 Seatbelt 1D e
$lements;PSBLT_ID;90001017;SBLT_POINTS;3;0;SBPoint_1_0@_5;-369.612485;266.074347
$;-557.453574;1;SBPoint_1_1;-40.862686989557;-.23659500000004;-363.21222675993;2
$;SBPoint_1_2;-10.775871344007;-210.41622775447;77.85190192647;ENTRY_VEC;0.;0.;0
$.;EXIT_VEC;0.;0.;0.;SP_ENTITY;1;EP_ENTITY;0;START_PART_TYPE;0;END_PART_TYPE;0;M
$AIN_PART_TYPE_v14;0;CONTAINS;CONSTRAINED_NODAL_RIGID_BODY(91002099,91002101) EL
$EMENT_SHELL(1773-1774,91001821-91002086) ELEMENT_SEATBELT(91002087-91002098,910
$02100) NODE(2-4,91001781,91002126,91002128-91002477);SBLT_PATH;83;1;-369.612485
$;266.074347;-557.453574;.775907355685375;-.54541968158763;.316993921598162;.622
$413490254928;.509414412348609;-.59422083743353;.622413490254928;.50941441234860
$9;-.59422083743353;0.;0.;0.;0;1;0;2;-360.30159673178;259.529310820948;-553.6496
$4694082;.775576875355502;-.54621549775071;.316389890764638;.622441368996402;.50
$9345947225798;-.59425032453213;.622441368996402;.509345947225798;-.594250324532
$13;0.;0.;0.;0;1;0;3;-350.99070846355;252.984274641897;-549.84571988164;.7752463
$95025628;-.54701131391379;.315785859931114;.622469243797326;0.50927747887151;-.
$59427980786887;.622469243797326;0.50927747887151;-.59427980786887;0.;0.;0.;0;0;
$0;4;-341.67982019533;246.439238462845;-546.04179282247;.774915914695755;-.54780
$713007688;0.31518182909759;.622497114657436;.509209007286395;-.59430928744347;.
$622497114657436;.509209007286395;-.59430928744347;0.;0.;0.;0;0;0;5;-332.3689319
$271;239.894202283794;-542.23786576329;.774585434365881;-.54860294623996;.314577
$798264066;.622524981576465;.509140532471104;-.59433876325566;.622524981576465;.
$509140532471104;-.59433876325566;0.;0.;0.;0;0;0;6;-323.05804365888;233.34916610
$4742;-538.43393870411;.774254954036008;-.54939876240305;.313973767430543;.62255
$2844554148;.509072054426286;-.59436823530513;.622552844554148;.509072054426286;
$-.59436823530513;0.;0.;0.;0;0;0;7;-313.74715539065;226.804129925691;-534.630011
$64493;.773924473706134;-.55019457856613;.313369736597019;0.62258070359022;.5090
$03573152591;-.59439770359163;0.62258070359022;.509003573152591;-.59439770359163
$;0.;0.;0.;0;0;0;8;-304.43626712243;220.259093746639;-530.82608458575;.773593993
$376261;-.55099039472922;.312765705763495;.622608558684415;.508935088650669;-.59
$442716811486;.622608558684415;.508935088650669;-.59442716811486;0.;0.;0.;0;0;0;
$9;-295.1253788542;213.714057567588;-527.02215752658;.773263513046387;-0.5517862
$108923;.312161674929971;.622636409836467;.508866600921171;-.59445662887454;.622
$636409836467;.508866600921171;-.59445662887454;0.;0.;0.;0;0;0;10;-285.814490585
$98;207.169021388536;-523.2182304674;.772933032716514;-.55258202705539;.31155764
$4096447;.622664257046112;.508798109964747;-.59448608587041;.622664257046112;.50
$8798109964747;-.59448608587041;0.;0.;0.;0;0;0;11;-276.50360231775;200.623985209
$485;-519.41430340822;0.77260255238664;-.55337784321847;.310953613262923;.622692
$100313084;.508729615782046;-.59451553910216;.622692100313084;.508729615782046;-
$.59451553910216;0.;0.;0.;0;0;0;12;-267.19271404953;194.078949030433;-515.610376
$34904;.772272072056767;-.55417365938155;.310349582429399;.622719939637118;.5086
$61118373719;-.59454498856953;.622719939637118;.508661118373719;-.59454498856953
$;0.;0.;0.;0;0;0;13;-257.88182578131;187.533912851382;-511.80644928987;.77194159
$1726893;-.55496947554464;.309745551595876;.622747775017949;.508592617740417;-.5
$9457443427223;.622747775017949;.508592617740417;-.59457443427223;0.;0.;0.;0;0;0
$;14;-248.57093751308;180.98887667233;-508.00252223069;.771611111397019;-.555765
$29170772;.309141520762352;.622775606455312;0.50852411388279;-.59460387620999;.6
$22775606455312;0.50852411388279;-.59460387620999;0.;0.;0.;0;0;0;15;-239.2600492
$4486;174.443840493279;-504.19859517151;.771280631067146;-.55656110787081;.30853
$7489928828;.622803433948942;.508455606801488;-.59463331438252;.622803433948942;
$.508455606801488;-.59463331438252;0.;0.;0.;0;0;0;16;-229.94916097663;167.898804
$314227;-500.39466811233;.770950150737272;-.55735692403389;.307933459095304;.622
$831257498575;.508387096497162;-.59466274878954;.622831257498575;.50838709649716
$2;-.59466274878954;0.;0.;0.;0;0;0;17;-220.63827270841;161.353768135176;-496.590
$74105315;.770619670407399;-.55815274019698;0.30732942826178;.622859077103945;.5
$08318582970463;-.59469217943077;.622859077103945;.508318582970463;-.59469217943
$077;0.;0.;0.;0;0;0;18;-211.32738444018;154.808731956124;-492.78681399398;.77028
$9190077525;-.55894855636006;.306725397428256;.622886892764788;.508250066222041;
$-.59472160630594;.622886892764788;.508250066222041;-.59472160630594;0.;0.;0.;0;
$0;0;19;-202.01649617196;148.263695777073;-488.9828869348;.769958709747652;-.559
$74437252315;.306121366594733;.622914704480839;.508181546252547;-.59475102941476
$;.622914704480839;.508181546252547;-.59475102941476;0.;0.;0.;0;0;0;20;-192.7056
$0790373;141.718659598021;-485.17895987562;.769628229417778;-.56054018868623;.30
$5517335761209;.622942512251834;.508113023062632;-.59478044875696;.6229425122518
$34;.508113023062632;-.59478044875696;0.;0.;0.;0;0;0;21;-183.39471963551;135.173
$62341897;-481.37503281644;.769297749087905;-.56133600484931;.304913304927685;.6
$22970316077509;.508044496652947;-.59480986433224;.622970316077509;.508044496652
$947;-.59480986433224;0.;0.;0.;0;0;0;22;-174.08383136729;128.628587239918;-477.5
$7110575726;.768967268758031;-0.5621318210124;.304309274094161;.622998115957598;
$.507975967024142;-.59483927614035;.622998115957598;.507975967024142;-.594839276
$14035;0.;0.;0.;0;0;0;23;-164.77294309906;122.083551060867;-473.76717869809;.768
$636788428158;-.56292763717548;.303705243260637;.623025911891838;.50790743417686
$9;-.59486868418098;.623025911891838;.507907434176869;-.59486868418098;0.;0.;0.;
$0;0;0;24;-155.46205483084;115.538514881815;-469.96325163891;.768306308098284;-.
$56372345333857;.303101212427113;.623053703879965;.507838898111778;-.59489808845
$387;.623053703879965;.507838898111778;-.59489808845387;0.;0.;0.;0;0;0;25;-146.1
$5116656261;108.993478702764;-466.15932457973;.767975827768411;-.56451926950165;
$.302497181593589;.623081491921714;.507770358829522;-.59492748895874;.6230814919
$21714;.507770358829522;-.59492748895874;0.;0.;0.;0;0;0;26;-136.84027829439;102.
$448442523712;-462.35539752055;.767645347438537;-.56531508566474;.30189315076006
$6;.623109276016821;0.50770181633075;-0.5949568856953;.623109276016821;0.5077018
$1633075;-0.5949568856953;0.;0.;0.;0;0;0;27;-127.62853412513;95.6646614957355;-4
$58.73267971143;.707616353619898;-.62764754178728;0.32455763645008;.648522224236
$947;.481702022460426;-0.5893912844862;.648522224236947;.481702022460426;-0.5893
$912844862;0.;0.;0.;0;1;0;28;-119.13713788169;88.1328909942881;-454.83798807403;
$.685022903075679;-0.6140836032218;.391975701435556;.672728771833378;.4022840548
$15293;-.62096983726178;.672728771833378;.402284054815293;-.62096983726178;0.;0.
$;0.;0;1;0;29;-110.91686304478;80.7638877556265;-450.1342796568;.658574795191917
$;-.64008393263124;0.3956915444197;.703890856564064;.390150449606411;-.593565740
$85557;.703890856564064;.390150449606411;-.59356574085557;0.;0.;0.;0;1;0;30;-103
$.01396550248;73.0828805640516;-445.38598112377;.657684211543849;-.6261559591746
$3;.418784183889562;.709961772623595;.335105790080373;-.61940163938092;.70996177
$2623595;.335105790080373;-.61940163938092;0.;0.;0.;0;1;0;31;-95.121754963949;65
$.5690090539561;-440.36057091709;.652380757127447;-.60455618756474;.455081317091
$749;0.71755957003157;.278750712799437;-.63828387381314;0.71755957003157;.278750
$712799437;-.63828387381314;0.;0.;0.;0;1;0;32;-87.241650874165;58.7086908093616;
$-434.45802967479;.647077302711045;-.58295641595485;.491378450293937;.7250039976
$27638;.285065129157591;-.62698251615361;.725003997627638;.285065129157591;-.626
$98251615361;0.;0.;0.;0;1;0;33;-79.476723241633;51.7132138179034;-428.5614882712
$6;.611510867729695;-.59651037981924;.519836344839778;.737662572718564;.25291121
$0906872;-.62601106077117;.737662572718564;.252911210906872;-.62601106077117;0.;
$0.;0.;0;1;0;34;-72.138592828876;44.5550892600725;-422.32345213319;0.54275783379
$138;-.55939157081586;.626494217338244;.752764427242747;.175804124248623;-.63438
$050645892;.752764427242747;.175804124248623;-.63438050645892;0.;0.;0.;0;1;0;35;
$-65.62549882338;37.8423904102822;-414.80552152513;.509310625571871;-.5681493303
$2231;.646381485760463;.806960393961527;.152254263964687;-.57064311235835;.80696
$0393961527;.152254263964687;-.57064311235835;0.;0.;0.;0;1;0;36;-59.513771316517
$;31.0245984464145;-407.048943696;.476066334457013;-.57591162871406;.66459509560
$9784;.830220850623337;.118666752232519;-.54465726939503;.830220850623337;.11866
$6752232519;-.54465726939503;0.;0.;0.;0;1;0;37;-53.800975303033;24.1136589018458
$;-399.07380254868;.460462133604398;-.59063333598894;.662666496765202;.852120738
$284491;.092559553407872;-0.515095113992;.852120738284491;.092559553407872;-0.51
$5095113992;0.;0.;0.;0;1;0;38;-48.275429699781;17.0260588699785;-391.1218045875;
$.357106114505533;-.54683162587647;.757265076392707;.882196281784386;.0044874495
$21985;-.47086047105548;.882196281784386;.004487449521985;-.47086047105548;0.;0.
$;0.;0;1;0;39;-43.990156325714;10.4640793594608;-382.03462367079;.38522438440428
$6;-.55012699123258;.740181824380669;.892472829018713;.034510079902539;-0.449779
$1723151;.892472829018713;.034510079902539;-0.4497791723151;0.;0.;0.;0;1;0;40;-3
$9.704882951648;3.9020998489431;-372.94744275408;.413342654303039;-.553422356588
$68;.723098572368631;0.9014586133472;.064499012956643;-.42803299609932;0.9014586
$133472;.064499012956643;-.42803299609932;0.;0.;0.;0;0;0;41;-34.744771100011;-2.
$7389684301211;-364.27025988565;.409712694668634;-.55987025604157;.7199709252982
$54;.904192349102358;.088286275043011;-.41790157868066;.904192349102358;.0882862
$75043011;-.41790157868066;0.;0.;0.;0;1;0;42;-29.784659248375;-9.3800367091852;-
$355.59307701723;.406082735034229;-.56631815549445;.716843278227877;.90631761330
$5713;.112049343531958;-.40747187439858;.906317613305713;.112049343531958;-.4074
$7187439858;0.;0.;0.;0;0;0;43;-24.824547396738;-16.021104988249;-346.91589414881
$;.402452775399825;-.57276605494734;0.7137156311575;.907829806406801;.1357638289
$82831;-.39675335580094;.907829806406801;.135763828982831;-.39675335580094;0.;0.
$;0.;0;0;0;44;-19.864435545102;-22.662173267314;-338.23871128038;0.3988228157654
$2;-.57921395440023;.710587984087123;.908725563130928;.159405333816375;-.3857561
$2822516;.908725563130928;.159405333816375;-.38575612822516;0.;0.;0.;0;0;0;45;-1
$4.904323693465;-29.303241546378;-329.56152841196;.395192856131015;-.58566185385
$312;.707460337016746;.909002769359099;.182949535482498;-.37449089810599;.909002
$769359099;.182949535482498;-.37449089810599;0.;0.;0.;0;0;0;46;-9.9442118418289;
$-35.944309825442;-320.88434554354;.391562896496611;-0.592109753306;.70433268994
$6369;.908660572676589;.206372269578868;-.36296893808137;.908660572676589;.20637
$2269578868;-.36296893808137;0.;0.;0.;0;0;0;47;-5.2454570838696;-43.049626865114
$;-312.43235326418;.353742717653793;-.59372496272569;.722742525622563;.922353081
$938517;.188987222957333;-.33696976392162;.922353081938517;.188987222957333;-.33
$696976392162;0.;0.;0.;0;1;0;48;-1.0005444720241;-50.174326417822;-303.759442956
$71;.326931146937467;-.59960206676312;.730474768007455;.938198753955362;.1586910
$86896913;-.30757151528723;.938198753955362;.158691086896913;-.30757151528723;0.
$;0.;0.;0;1;0;49;2.92262929122553;-57.36955121898;-294.99374574062;.230889211406
$376;-0.5888428494566;.774567150542788;.953299153624418;.095299217728991;-0.2865
$986440987;.953299153624418;.095299217728991;-0.2865986440987;0.;0.;0.;0;1;0;50;
$5.69329982810204;-64.435665412459;-285.69893993411;.134425530748892;-.557410356
$02557;.819282290592401;.959947880196831;-.02285247516105;-.27924511040415;.9599
$47880196831;-.02285247516105;-.27924511040415;0.;0.;0.;0;1;0;51;7.3064061970887
$5;-71.124589684766;-275.867552447;0.10295519479037;-.51519206733273;.8508685924
$53092;.954521055925422;-.17378294542947;-0.2422582128079;.954521055925422;-.173
$78294542947;-0.2422582128079;0.;0.;0.;0;1;0;52;8.54186853457319;-77.30689449275
$8;-265.65712933756;0.05978126063685;-.52395153000934;.849647571100832;.94668245
$8203535;-.23075717101176;-0.2248187077544;.946682458203535;-.23075717101176;-0.
$2248187077544;0.;0.;0.;0;1;0;53;9.25924366221539;-83.59431285287;-255.461358484
$35;.038722874256534;-.50841524316827;.859335273724811;0.90859008140753;-.325119
$89011806;-.26222341813324;0.90859008140753;-.32511989011806;-.26222341813324;0.
$;0.;0.;0;1;0;54;9.97661878985759;-89.881731212983;-245.26558763114;.01766448787
$6218;-.49287895632721;.869022976348791;.859490943270734;-.41619544289623;-.2967
$4344432185;.859490943270734;-.41619544289623;-.29674344432185;0.;0.;0.;0;0;0;55
$;10.6939939174998;-96.169149573095;-235.06981677793;-0.0033938985041;-.47734266
$948614;.878710678972771;.800163330001681;-.50232338044032;-.32773444552508;.800
$163330001681;-.50232338044032;-.32773444552508;0.;0.;0.;0;0;0;56;10.65326713545
$06;-101.89726160693;-224.52528863026;-.00975429534923;-.47116311427137;.8815020
$36963732;.760188176069254;-.55031710373974;-.34534768320637;.760188176069254;-.
$55031710373974;-.34534768320637;0.;0.;0.;0;1;0;57;10.6125403534015;-107.6253736
$4076;-213.98076048258;-.01611469219436;-.46498355905659;.884293394954693;0.7160
$102800829;-.59698686395307;-.36185074697046;0.7160102800829;-.59698686395307;-.
$36185074697046;0.;0.;0.;0;0;0;58;10.5718135713523;-113.3534856746;-203.43623233
$491;-.02247508903949;-.45880400384182;.887084752945654;.667690751296901;-0.6418
$920581353;-.37704594724703;.667690751296901;-0.6418920581353;-.37704594724703;0
$.;0.;0.;0;0;0;59;10.5310867893031;-119.08159770843;-192.89170418724;-.028835485
$88462;-.45262444862705;.889876110936616;.615359816193345;-.68458360777841;-.390
$73978627161;.615359816193345;-.68458360777841;-.39073978627161;0.;0.;0.;0;0;0;6
$0;10.4903600072539;-124.80970974226;-182.34717603956;-.03519588272975;-.4464448
$9341227;.892667468927577;.559219957583073;-.72461489992659;-.40274841507468;.55
$9219957583073;-.72461489992659;-.40274841507468;0.;0.;0.;0;0;0;61;10.4496332252
$048;-130.5378217761;-171.80264789189;-.04155627957489;-0.4402653381975;.8954588
$26918538;.499546516137065;-0.7615537794687;-0.4129032806751;.499546516137065;-0
$.7615537794687;-0.4129032806751;0.;0.;0.;0;0;0;62;10.4089064431556;-136.2659338
$0993;-161.25811974422;-.04791667642002;-.43408578298273;.898250184909499;.43668
$5434894829;-.79499503943447;-.42105666866266;.436685434894829;-.79499503943447;
$-.42105666866266;0.;0.;0.;0;0;0;63;10.3681796611064;-141.99404584376;-150.71359
$159654;-.05427707326515;-.42790622776795;0.90104154290046;.371048004368258;-.82
$457275412218;-.42708681976116;.371048004368258;-.82457275412218;-.4270868197611
$6;0.;0.;0.;0;0;0;64;10.3274528790572;-147.7221578776;-140.16906344887;-.0606374
$7011028;-.42172667255318;.903832900891421;.303102677612105;-.84997174918711;-.4
$3090230030504;.303102677612105;-.84997174918711;-.43090230030504;0.;0.;0.;0;0;0
$;65;10.2867260970081;-153.45026991143;-129.6245353012;-.06699786695541;-.415547
$11733841;.906624258882383;.233364249522361;-.87093751549286;-0.4324453389181;.2
$33364249522361;-.87093751549286;-0.4324453389181;0.;0.;0.;0;0;0;66;10.245999314
$9589;-159.17838194527;-119.08000715352;-.07335826380054;-.40936756212363;.90941
$5616873344;.162380906785961;-.88728395366747;-.43169390391295;.162380906785961;
$-.88728395366747;-.43169390391295;0.;0.;0.;0;0;0;67;9.3657001493524;-164.090792
$69075;-108.16701975104;-.07410447891045;-.40392473755067;.911785793155407;.1019
$33333479012;-.90335403531102;-.41660662790354;.101933333479012;-.90335403531102
$;-.41660662790354;0.;0.;0.;0;1;0;68;8.47644640242701;-168.93788954136;-97.22559
$0233179;-.02611868823863;-0.3944675048079;.917219494617398;0.03344960360377;-.9
$1316574962991;-.40621353709792;0.03344960360377;-.91316574962991;-.406213537097
$92;0.;0.;0.;0;1;0;69;7.58719265550162;-173.78498639196;-86.284160715314;0.02186
$710243318;-.38501027206513;.922653196079389;-.03529629631074;-.91851258960105;-
$.39381314631575;-.03529629631074;-.91851258960105;-.39381314631575;0.;0.;0.;0;0
$;0;70;7.84959788469978;-178.40510965675;-75.212322362362;-.01207987121777;-.332
$64487342465;.942974795472108;-.06576208369107;-.93231721168794;-0.3556120992585
$;-.06576208369107;-.93231721168794;-0.3556120992585;0.;0.;0.;0;1;0;71;7.7046394
$3008659;-182.39684813784;-63.896624816696;-.04413699940246;-.29021524461685;.95
$5943009324158;-.09631498321476;-.94514512079302;-.31212837847508;-.096314983214
$76;-.94514512079302;-.31212837847508;0.;0.;0.;0;1;0;72;7.17499543725702;-185.87
$943107324;-52.425308704806;-.13418442334534;-.18341487091022;.973834444687835;-
$.08861307790999;-.95801660763349;-.27267545163021;-.08861307790999;-.9580166076
$3349;-.27267545163021;0.;0.;0.;0;1;0;73;5.5429352674441;-188.11027201514;-40.58
$0741581866;-0.1343405152723;-.18325257236458;.973843217799142;-.08747847512298;
$-.95921127464572;-.26881452152494;-.08747847512298;-.95921127464572;-.268814521
$52494;0.;0.;0.;0;1;0;74;3.91087509763118;-190.34111295704;-28.736174458926;-.13
$449660719926;-.18309027381893;.973851990910449;-.08634224065666;-.9603891318376
$5;-.26494854769656;-.08634224065666;-.96038913183765;-.26494854769656;0.;0.;0.;
$0;0;0;75;2.27881492781825;-192.57195389894;-16.891607335987;-.13465269912621;-.
$18292797527329;.973860764021756;-.08520440419621;-.96155014427771;-.26107763126
$143;-.08520440419621;-.96155014427771;-.26107763126143;0.;0.;0.;0;0;0;76;.64675
$4758005332;-194.80279484084;-5.0470402130466;-.13480879105317;-.18276567672764;
$.973869537133064;-.08406499551978;-.96269427791583;-.25720187362532;-.084064995
$51978;-.96269427791583;-.25720187362532;0.;0.;0.;0;0;0;77;-.98530541180759;-197
$.03363578274;6.79752690989338;-.13496488298013;-0.182603378182;.973878310244371
$;-.08292404449585;-.96382149958667;-.25332137647453;-.08292404449585;-.96382149
$958667;-.25332137647453;0.;0.;0.;0;0;0;78;-2.6173655816205;-199.26447672464;18.
$6420940328333;-.13512097490708;-.18244107963635;.973887083355678;-.081781581080
$64;-0.9649317770128;-.24943624176706;-.08178158108064;-0.9649317770128;-.249436
$24176706;0.;0.;0.;0;0;0;79;-4.2494257514334;-201.49531766654;30.4866611557733;-
$.13527706683404;-.18227878109071;.973895856466985;-0.0806376353155;-.9660250788
$0774;-.24554657172361;-0.0806376353155;-.96602507880774;-.24554657172361;0.;0.;
$0.;0;0;0;80;-5.8814859212464;-203.72615860844;42.3312282787133;-0.135433158761;
$-.18211648254506;.973904629578292;-.07949223732426;-.96710137447893;-.241652468
$81865;-.07949223732426;-.96710137447893;-.24165246881865;0.;0.;0.;0;0;0;81;-7.5
$135460910593;-205.95699955034;54.1757954016532;-.13558925068796;-.1819541839994
$2;.973913402689599;-.07834541731061;-.96816063443047;-.23775403577145;-.0783454
$1731061;-.96816063443047;-.23775403577145;0.;0.;0.;0;0;0;82;-9.1456062608722;-2
$08.18784049224;66.0203625245932;-.13574534261491;-.18179188545377;.973922175800
$906;-.07719720555541;-0.9692028299659;-.23385137553697;-.07719720555541;-0.9692
$028299659;-.23385137553697;0.;0.;0.;0;0;0;83;-10.775871344007;-210.41622775447;
$77.85190192647;-.13590143454187;-.18162958690813;.973930948912214;-0.0760488975
$548;-.97022681518915;-.22994889055749;-0.0760488975548;-.97022681518915;-.22994
$889055749;0.;0.;0.;0;1;0;SBLT_NODE_IDS;3;91001770;2405505;91001715;SBLT_POINTS_
$TYPES;3;0;0;0;SBLT_POINTS_ENTITY_TYPE;3;0;0;0;STIFFENER_CREATE;0;
$ANSA_SEATBELT;ID;9000001;NAME;Lap belt;COLOR;212;139;31;100;DISABLE_P2W;0;PROP_
$CONTAINS;SECTION_SHELL(1180120,1280120,1370020,1370120);PROP_NAMES;4;left_pelvi
$s_skin;right_thigh_skin;left_thigh_skin;right_pelvis_skin;PROP_IDS;4;1370120;11
$80120;1280120;1370020;CONTACT_NAME;;CREATE_CNCT;0;AUTO_RECREATE;0;USE_REAL_THIC
$KNESS;0;THICKNESS_FACTOR;1.;APPLY_CONSTANT_WIDTH;1;SMOOTH_BELT;0;UNFOLD_BELT;0;
$CHECK_QUALITY;1;BELT_TYPE;1;KEEP_ID_RANGE;1;N_RBODY_CONS_SET;0;MAT_ORIENT;0;NUM
$_OF_COMPONENTS;1;COMP_NAME;Lap;POINTS_NAME;SBPoint;INDEX;0;GENTYPE;0;FLIPPED_EN
$TRY;0;FLIPPED_EXIT;0;LENGTH_1;50.;LENGTH_2;300.;EL_LENGTH;12.;EL_OFFSET;3.;NUM_
$OF_SHELLS;4;EXTEND_SBLTS;0;CREATE_TRIAS_AT_END;0;CREATE_TRIAS_AT_START;0;IS_FRO
$ZEN;0;IS_MEMBRANE;0;STATUS_ERROR;0;CREATE_RIGID_MASTER;1;1;PSHELL_NAME;GS2 Lap 
$belt 2D seatbelt;PSHELL_ID;90001016;PSBLT_NAME;GS2 Seatbelt 1D elements;PSBLT_I
$D;90001017;SBLT_POINTS;4;0;SBPoint_1_0@_2;-10.346346220528;-210.4963652832;77.8
$460823220225;1;SBPoint_1_1@_2;28.0137808935513;-129.94888;-131.3549938918;2;SBP
$oint_1_2@_2;33.8054718035767;131.13991;-125.5721920868;3;SBPoint_1_3;-213.60464
$461896;294.53514662878;292.871934479125;ENTRY_VEC;0.;0.;0.;EXIT_VEC;0.;0.;0.;SP
$_ENTITY;0;EP_ENTITY;0;START_PART_TYPE;0;END_PART_TYPE;0;MAIN_PART_TYPE_v14;0;CO
$NTAINS;CONSTRAINED_NODAL_RIGID_BODY(2009,2034) ELEMENT_SHELL(1772,1775-2005) EL
$EMENT_SEATBELT(2006-2008,2010-2033) NODE(1,5-325);SBLT_PATH;88;1;-10.3463462205
$28;-210.4963652832;77.8460823220225;.215883565153295;.179941108419609;-.9596955
$1619116;-.09444855823931;-.96786076289914;-.23307726934821;-.09444855823931;-.9
$6786076289914;-.23307726934821;0.;0.;0.;0;1;0;2;-7.7557434386885;-208.337071982
$16;66.3297361277285;.214437644206393;.185264907600974;-.95884400440558;-.095126
$60128411;-.96737985027131;-.23479172689255;-.09512660128411;-.96737985027131;-.
$23479172689255;0.;0.;0.;0;1;0;3;-5.1651406568489;-206.17777868113;54.8133899334
$346;.212991723259491;.190588706782339;-.95799249261999;-.09580431023999;-0.9668
$954176052;-.23650536051747;-.09580431023999;-0.9668954176052;-.23650536051747;0
$.;0.;0.;0;0;0;4;-2.5745378750094;-204.01848538009;43.2970437391406;.21154580231
$2588;.195912505963705;-0.9571409808344;-.09648168140021;-0.9664074673733;-.2382
$1816085118;-.09648168140021;-0.9664074673733;-.23821816085118;0.;0.;0.;0;0;0;5;
$.016064906830185;-201.85919207906;31.7806975448466;.210099881365686;0.201236305
$14507;-.95628946904882;-.09715871106146;-.96591600208655;-.23993011853042;-.097
$15871106146;-.96591600208655;-.23993011853042;0.;0.;0.;0;0;0;6;2.60666768866973
$;-199.69989877802;20.2643513505526;.208653960418784;.206560104326435;-.95543795
$726323;-0.097835395524;-.96542102429432;-.24164122420061;-0.097835395524;-.9654
$2102429432;-.24164122420061;0.;0.;0.;0;0;0;7;5.19727047050928;-197.54060547699;
$8.74800515625866;.207208039471881;0.2118839035078;-.95458644547764;-.0985117310
$9167;-.96492253658436;-.24335146851608;-.09851173109167;-.96492253658436;-.2433
$5146851608;0.;0.;0.;0;0;0;8;7.78787325234882;-195.38131217595;-2.7683410380353;
$.205762118524979;.217207702689166;-.95373493369206;-.09918771407197;-.964420541
$58273;-.24506084214019;-.09918771407197;-.96442054158273;-.24506084214019;0.;0.
$;0.;0;0;0;9;10.3784760341884;-193.22201887492;-14.284687232329;.204316197578077
$;.222531501870531;-.95288342190647;-.09986334077615;-.96391504195378;-0.2467693
$357455;-.09986334077615;-.96391504195378;-0.2467693357455;0.;0.;0.;0;0;0;10;12.
$9690788160279;-191.06272557388;-25.801033426623;.202870276631174;.2278553010518
$96;-.95203191012088;-.10053860751926;-.96340604040009;-.24847694001397;-.100538
$60751926;-.96340604040009;-.24847694001397;0.;0.;0.;0;0;0;11;15.5596815978675;-
$188.90343227285;-37.317379620917;.201424355684272;.233179100233262;-0.951180398
$3353;-.10121351062021;-.96289353966244;-.25018364563711;-.10121351062021;-.9628
$9353966244;-.25018364563711;0.;0.;0.;0;0;0;12;18.150284379707;-186.74413897181;
$-48.833725815211;0.19997843473737;.238502899414627;-.95032888654971;-.101888046
$40184;-.96237754251972;-.25188944331616;-.10188804640184;-.96237754251972;-.251
$88944331616;0.;0.;0.;0;0;0;13;20.5500255965554;-183.88210417884;-60.23767245380
$8;.233581936220431;.316525176776109;-.91937548995955;-.11796791143453;-.9468143
$8678753;-.29937616612537;-.11796791143453;-.94681438678753;-.29937616612537;0.;
$0.;0.;0;1;0;14;23.3530088312006;-180.08380205752;-71.270178333322;.164471419471
$653;.410336327744136;-.89698007241546;-.11091600951703;-0.9173051074299;-.38242
$512824844;-.11091600951703;-0.9173051074299;-.38242512824844;0.;0.;0.;0;1;0;15;
$25.3266658648604;-175.15976612459;-82.033939202308;.197774767997829;.4965726953
$25244;-.84516311999568;-.08923102616597;-0.8862402957954;-.45455028553269;-.089
$23102616597;-0.8862402957954;-.45455028553269;0.;0.;0.;0;1;0;16;27.699963080834
$4;-169.20089378069;-92.175896642256;.195476247469336;.569616277999141;-.7983272
$0892734;.031163196871463;-.84178414126426;-.53891401417735;.031163196871463;-.8
$4178414126426;-.53891401417735;0.;0.;0.;0;1;0;17;30.0456780504664;-162.36549844
$47;-101.75582314938;.240974073643145;.703526153416575;-.66856745904262;.1154741
$23737567;-.81348236012517;-0.570010681051;.115474123737567;-.81348236012517;-0.
$570010681051;0.;0.;0.;0;1;0;18;32.9373669341842;-153.9231846037;-109.7786326579
$;.252147608676648;.728280779115239;-.63236349617256;.158847150920012;-.72202539
$307912;-.67338467044739;.158847150920012;-.72202539307912;-.67338467044739;0.;0
$.;0.;0;1;0;19;35.8290558179019;-145.4808707627;-117.80144216641;.26332114371015
$1;.753035404813902;-0.5961595333025;.198943012629936;-.61531288492701;-.7627658
$4307933;.198943012629936;-.61531288492701;-.76276584307933;0.;0.;0.;0;0;0;20;39
$.3418781304735;-135.82441099441;-123.99925340455;.285668213777156;.802544656211
$229;-.52375160756237;.302751823699214;-0.6031634097092;-.73792630691335;.302751
$823699214;-0.6031634097092;-.73792630691335;0.;0.;0.;0;1;0;21;42.7698966957994;
$-126.19387511988;-130.2842726953;.266372218856553;.823827775238235;-.5003535127
$9616;.401671861240071;-.58538184326392;-.70426402255466;.401671861240071;-.5853
$8184326392;-.70426402255466;0.;0.;0.;0;1;0;22;45.966363322078;-116.30794181702;
$-136.28851484885;.265863837626786;.829139465932602;-.49167093281039;.4712796718
$97453;-.57171443586324;-.67159368272922;.471279671897453;-.57171443586324;-.671
$59368272922;0.;0.;0.;0;1;0;23;49.1628299483567;-106.42200851416;-142.2927570024
$1;.265355456397018;0.83445115662697;-.48298835282462;.538073566056835;-.5545423
$6705692;-.63479098973582;.538073566056835;-.55454236705692;-.63479098973582;0.;
$0.;0.;0;0;0;24;52.3470954251209;-96.408594634636;-148.0886172363;.2475321867518
$84;.851403763360748;-.45850387039826;.623214799359875;-.54913215153223;-.556827
$79565357;.623214799359875;-.54913215153223;-.55682779565357;0.;0.;0.;0;1;0;25;5
$5.5313609018851;-86.395180755112;-153.8844774702;.229708917106749;.868356370094
$525;-0.4340193879719;.700499849499758;-.53628134969975;-0.4708527103193;.700499
$849499758;-.53628134969975;-0.4708527103193;0.;0.;0.;0;0;0;26;58.8063455639607;
$-76.489870243815;-159.81400520333;0.19406237781648;0.90226158356208;-.385050423
$11918;.800889995203176;-.45930723788124;-.38420317126927;.800889995203176;-.459
$30723788124;-.38420317126927;0.;0.;0.;0;1;0;27;61.1350940977584;-65.66273124107
$;-164.43461028076;.177071436857166;.924944619297232;-.33633786210065;0.85005276
$274394;-.34179480842339;-.40073259099581;0.85005276274394;-.34179480842339;-.40
$073259099581;0.;0.;0.;0;1;0;28;63.2599513400444;-54.563395809503;-168.470664625
$97;.138944760583945;.956941899556429;-.25486575756583;.884735870422124;-.269647
$15619657;-.38017476342271;.884735870422124;-.26964715619657;-.38017476342271;0.
$;0.;0.;0;1;0;29;64.9272884670517;-43.080093014826;-171.52905371676;.10400424107
$8099;.982537902714974;-.15428022415795;.897349800642922;-.19358851464869;-0.396
$594027038;.897349800642922;-.19358851464869;-0.396594027038;0.;0.;0.;0;1;0;30;6
$6.1753393599889;-31.289638182246;-173.38041640665;.041475666069347;.99861999102
$3567;0.03221618618327;.906134665324756;-.09191690321926;-0.4128816430884;.90613
$4665324756;-.09191690321926;-0.4128816430884;0.;0.;0.;0;1;0;31;66.6730473528211
$;-19.306198289964;-172.99382217245;0.03892222189502;0.99845736153621;.039597447
$353406;.909102523945428;-.04823188746362;-.41377081335898;.909102523945428;-.04
$823188746362;-.41377081335898;0.;0.;0.;0;1;0;32;67.1401140155613;-7.32470995152
$9;-172.51865280421;0.02964736941151;.997409685469572;.065535889545103;.91028578
$6833373;-.01834459409535;-.41357376869988;.910285786833373;-.01834459409535;-.4
$1357376869988;0.;0.;0.;0;1;0;33;67.4958824484994;4.64420627410585;-171.73222212
$967;-.01067902672302;.997126225691514;.002342022908406;.910281808294275;.004562
$877252449;-.41396401974047;.910281808294275;.004562877252449;-.41396401974047;0
$.;0.;0.;0;1;0;34;67.8306084209717;16.5950886597879;-170.70053965577;-.051005422
$85755;.996842765913457;-.06085184372829;.910655536477987;0.01645178086767;-.412
$83874913611;.910655536477987;0.01645178086767;-.41283874913611;0.;0.;0.;0;1;0;3
$5;67.2185433466811;28.5572018507493;-171.43076178051;-.12955516365804;.99130559
$9553499;.022992778505788;.907487654532391;.076094991287929;-0.4131291676609;.90
$7487654532391;.076094991287929;-0.4131291676609;0.;0.;0.;0;1;0;36;65.6638813827
$846;40.4528690453913;-171.15484843844;-.20629671768938;.965226289221543;.160561
$125015361;.899869363192964;.174627412138057;-.39967536340967;.899869363192964;.
$174627412138057;-.39967536340967;0.;0.;0.;0;1;0;37;63.1883207705121;52.03558451
$60499;-169.22811493826;-.23663833720539;.950359673770202;.202036600238829;.8803
$82471577813;0.25133094349772;-.40219331244948;.880382471577813;0.25133094349772
$;-.40219331244948;0.;0.;0.;0;1;0;38;60.3486607240475;63.4399006012923;-166.8036
$7573539;-.31402988544607;.868508162044064;.383508544245852;0.83174368529287;.35
$0678120096192;-0.4303804108707;0.83174368529287;.350678120096192;-0.43038041087
$07;0.;0.;0.;0;1;0;39;56.5803020986946;73.8619985458211;-162.20157320444;-.31600
$480897389;.856283703006218;.406845519128094;0.78496300947758;.405177360681498;-
$.46868366745927;0.78496300947758;.405177360681498;-.46868366745927;0.;0.;0.;0;1
$;0;40;52.8119434733418;84.2840964903498;-157.59947067349;-.31797973250172;.8440
$59243968372;.430182494010336;.732675838283657;.457274344614185;-.50406972707455
$;.732675838283657;.457274344614185;-.50406972707455;0.;0.;0.;0;0;0;41;49.043584
$847989;94.7061944348786;-152.99736814254;-.31995465602954;.831834784930525;.453
$519468892578;.675347260192725;0.50641281681497;-.53614563051069;.67534726019272
$5;0.50641281681497;-.53614563051069;0.;0.;0.;0;0;0;42;45.2041289756346;104.6882
$11854045;-147.55513451583;-.33143429453981;.804626486899034;0.49267385254691;0.
$61683869847902;.552541614592149;-.56054240178831;0.61683869847902;.552541614592
$149;-.56054240178831;0.;0.;0.;0;1;0;43;41.2269174411568;114.343729696833;-141.6
$4304828527;-.32351406220496;.795719538475065;.511084198856936;.556756042296702;
$.575523991348606;-0.5989948620383;.556756042296702;.575523991348606;-0.59899486
$20383;0.;0.;0.;0;1;0;44;37.249705906679;123.999247539622;-135.73096205471;-0.31
$55938298701;.786812590051095;.529494545166963;.493362285570473;.595325287137337
$;-.63417778080876;.493362285570473;.595325287137337;-.63417778080876;0.;0.;0.;0
$;0;0;45;33.2724943722013;133.65476538241;-129.81887582414;-.30767359753524;.777
$905641627126;.547904891476989;.427181178204748;.611763878828117;-.6657786400514
$7;.427181178204748;.611763878828117;-.66577864005147;0.;0.;0.;0;0;0;46;29.58041
$12017784;142.989633081936;-123.24401712642;-0.3788737344904;.706246937881746;.5
$88090665053537;.393137475527135;.657071031620123;-.64319560379547;.393137475527
$135;.657071031620123;-.64319560379547;0.;0.;0.;0;1;0;47;25.8883280313554;152.32
$4500781461;-116.66915842869;-.45007387144555;.634588234136366;.628276438630085;
$.357626765210975;.699937201156407;-.61821599076865;.357626765210975;.6999372011
$56407;-.61821599076865;0.;0.;0.;0;0;0;48;20.4874415740088;159.939559591098;-109
$.12984116513;-.49164901758708;.442727661043193;0.74984895922638;.24214059254568
$9;.821067075789373;-.51693016017283;.242140592545689;.821067075789373;-.5169301
$6017283;0.;0.;0.;0;1;0;49;14.5876533629639;165.252291523616;-100.13165365442;-.
$49836348356215;.373821657314065;0.78223475170486;.127734290098805;.883664740081
$284;-.45035605721477;.127734290098805;.883664740081284;-.45035605721477;0.;0.;0
$.;0;1;0;50;8.60729156021812;169.738151411385;-90.744836633959;-.49016671700282;
$.320994743320837;.808187808208652;.038547306273478;0.90319469213151;-.427496728
$97523;.038547306273478;0.90319469213151;-.42749672897523;0.;0.;0.;0;1;0;51;2.62
$692975747232;174.224011299153;-81.358019613501;-.48196995044348;.26816782932760
$9;.834140864712444;-.05105545742964;.914730107414558;-.40082685895035;-.0510554
$5742964;.914730107414558;-.40082685895035;0.;0.;0.;0;0;0;52;-3.2177512569566;17
$7.47598877059;-71.242685097608;-.48197645396988;.268168205491223;.8341369847408
$42;-.05236614353034;.915074509112059;-.39987051627381;-.05236614353034;.9150745
$09112059;-.39987051627381;0.;0.;0.;0;1;0;53;-9.0624322713855;180.727966242027;-
$61.127350581715;-.48198295749627;.268168581654837;.834133104769241;-.0536767487
$1227;.915416409759588;-.39891302735126;-.05367674871227;.915416409759588;-.3989
$1302735126;0.;0.;0.;0;0;0;54;-14.907113285814;183.979943713464;-51.012016065822
$;-.48198946102266;.268168957818452;0.83412922479764;-.05498726754995;.915755807
$588401;-0.3979543959746;-.05498726754995;.915755807588401;-0.3979543959746;0.;0
$.;0.;0;0;0;55;-20.751794300243;187.2319211849;-40.896681549929;-.48199596454906
$;.268169333982066;.834125344826039;-.05629769461765;.916092700850101;-.39699462
$594588;-.05629769461765;.916092700850101;-.39699462594588;0.;0.;0.;0;0;0;56;-26
$.596475314672;190.483898656337;-30.781347034036;-.48200246807545;0.268169710145
$68;.834121464854437;-.05760802448939;.916427087816668;-.39603372107725;-.057608
$02448939;.916427087816668;-.39603372107725;0.;0.;0.;0;0;0;57;-32.441156329101;1
$93.735876127774;-20.666012518144;-.48200897160184;.268170086309294;.83411758488
$2836;-.05891825173904;.916758966780491;-0.3950716851909;-.05891825173904;.91675
$8966780491;-0.3950716851909;0.;0.;0.;0;0;0;58;-38.28583734353;196.987853599211;
$-10.550678002251;-.48201547512823;.268170462472908;.834113704911235;-.060228370
$94043;.917088336054392;-.39410852211903;-.06022837094043;.917088336054392;-.394
$10852211903;0.;0.;0.;0;0;0;59;-44.130518357959;200.239831070647;-.4353434863578
$7;-.48202197865463;.268170838636522;.834109824939634;-.06153837666734;.91741519
$3971654;-.39314423570377;-.06153837666734;.917415193971654;-.39314423570377;0.;
$0.;0.;0;0;0;60;-49.975199372388;203.491808542084;9.67999102953496;-.48202848218
$102;.268171214800136;.834105944968033;-.06284826349367;.917739538886049;-.39217
$882979714;-.06284826349367;.917739538886049;-.39217882979714;0.;0.;0.;0;0;0;61;
$-55.819880386817;206.743786013521;19.7953255454278;-.48203498570741;.2681715909
$63751;.834102064996431;-.06415802599346;.918061369171865;-0.391212308261;-.0641
$5802599346;.918061369171865;-0.391212308261;0.;0.;0.;0;0;0;62;-61.664561401246;
$209.995763484958;29.9106600613206;-.48204148923381;.268171967127365;0.834098185
$02483;-.06546765874095;.918380683223932;-.39024467496703;-.06546765874095;.9183
$ ... 6 like lines cut
$.;0.;0.;0;0;0;65;-79.198604444533;219.751695899268;60.2566636089991;-.482060999
$81298;.268173095618207;.834086545110027;-.06939572421723;.919323512234584;-.387
$33514340044;-.06939572421723;.919323512234584;-.38733514340044;0.;0.;0.;0;0;0;6
$6;-85.043285458961;223.003673370705;70.3719981248919;-.48206750333938;.26817347
$1781821;.834082665138425;-.07070478370527;.919632745711666;-0.3863631019857;-.0
$7070478370527;.919632745711666;-0.3863631019857;0.;0.;0.;0;0;0;67;-90.887966473
$39;226.255650842141;80.4873326407848;-.48207400686577;.268173847945435;.8340787
$85166824;-.07201368631832;.919939455238157;-.38538996831647;-.07201368631832;.9
$19939455238157;-.38538996831647;0.;0.;0.;0;0;0;68;-96.732647487819;229.50762831
$3578;90.6026671566776;-.48208051039216;0.26817422410905;.834074905195223;-.0733
$2242663356;.920243639332662;-.38441574632206;-.07332242663356;.920243639332662;
$-.38441574632206;0.;0.;0.;0;0;0;69;-102.57732850225;232.759605785015;100.718001
$67257;-.48208701391855;.268174600272664;.834071025223622;-.07463099922892;.9205
$45296534499;-.38344043994121;-.07463099922892;.920545296534499;-.38344043994121
$;0.;0.;0.;0;0;0;70;-108.42200951668;236.011583256452;110.833336188463;-.4820935
$1744495;.268174976436278;.834067145252021;-.07593939868314;.920844425403724;-.3
$8246405312203;-.07593939868314;.920844425403724;-.38246405312203;0.;0.;0.;0;0;0
$;71;-114.26669053111;239.263560727888;120.948670704356;-.48210002097134;.268175
$352599892;.834063265280419;-0.0772476195759;.921141024521152;-.38148658982195;-
$0.0772476195759;.921141024521152;-.38148658982195;0.;0.;0.;0;0;0;72;-120.111371
$54553;242.515538199325;131.064005220249;-.48210652449773;.268175728763506;.8340
$59385308818;-0.0785556564878;.921435092488378;-.38050805400767;-0.0785556564878
$;.921435092488378;-.38050805400767;0.;0.;0.;0;0;0;73;-125.95605255996;245.76751
$5670762;141.179339736142;-.48211302802413;0.26817610492712;.834055505337217;-.0
$7986350400054;.921726627927798;-0.3795284496551;-.07986350400054;.9217266279277
$98;-0.3795284496551;0.;0.;0.;0;0;0;74;-131.80073357439;249.019493142199;151.294
$674252035;-.48211953155052;.268176481090734;.834051625365616;-0.0811711566969;.
$922015629482634;-.37854778074931;-0.0811711566969;.922015629482634;-.3785477807
$4931;0.;0.;0.;0;0;0;75;-137.64541458882;252.271470613635;161.410008767927;-.482
$12603507691;.268176857254349;.834047745394014;-.08247860916088;0.92230209581695
$;-.37756605128447;-.08247860916088;0.92230209581695;-.37756605128447;0.;0.;0.;0
$;0;0;76;-143.49009560325;255.523448085072;171.52534328382;-0.4821325386033;.268
$177233417963;.834043865422413;-.08378585597776;.922586025615676;-0.376583265263
$8;-.08378585597776;.922586025615676;-0.3765832652638;0.;0.;0.;0;0;0;77;-149.334
$77661768;258.775425556509;181.640677799713;-0.4821390421297;.268177609581577;.8
$34039985450812;-.08509289173413;.922867417584625;-.37559942669952;-.08509289173
$413;.922867417584625;-.37559942669952;0.;0.;0.;0;0;0;78;-155.17945763211;262.02
$7403027946;191.756012315606;-.48214554565609;.268177985745191;.834036105479211;
$-.08639971101805;.923146270450514;-.37461453961279;-.08639971101805;.9231462704
$50514;-.37461453961279;0.;0.;0.;0;0;0;79;-161.02413864654;265.279380499382;201.
$871346831499;-.48215204918248;.268178361908805;0.83403222550761;-.0877063084190
$5;.923422582960985;-.37362860803365;-.08770630841905;.923422582960985;-.3736286
$0803365;0.;0.;0.;0;0;0;80;-166.86881966097;268.531357970819;211.986681347392;-.
$48215855270888;.268178738072419;.834028345536008;-.08901267852823;.923696353884
$618;-.37264163600099;-.08901267852823;.923696353884618;-.37264163600099;0.;0.;0
$.;0;0;0;81;-172.7135006754;271.783335442256;222.102015863284;-.48216505623527;.
$268179114236034;.834024465564407;-.09031881593833;.923967582010954;-.3716536275
$6245;-.09031881593833;.923967582010954;-.37165362756245;0.;0.;0.;0;0;0;82;-178.
$55818168982;275.035312913693;232.217350379177;-.48217155976166;.268179490399648
$;.834020585592806;-.09162471524384;.924236266150513;-.37066458677441;-.09162471
$524384;.924236266150513;-.37066458677441;0.;0.;0.;0;0;0;83;-184.40286270425;278
$.287290385129;242.33268489507;-.48217806328805;.268179866563262;.83401670562120
$5;-.09293037104101;.924502405134806;-.36967451770191;-.09293037104101;.92450240
$5134806;-.36967451770191;0.;0.;0.;0;0;0;84;-190.24754371868;281.539267856566;25
$2.448019410963;-.48218456681445;.268180242726876;.834012825649604;-.09423577792
$798;.924765997816358;-0.3686834244186;-.09423577792798;.924765997816358;-0.3686
$834244186;0.;0.;0.;0;0;0;85;-196.09222473311;284.791245328003;262.563353926856;
$-.48219107034084;0.26818061889049;.834008945678002;-.09554093050483;.9250270430
$68721;-.36769131100668;-.09554093050483;.925027043068721;-.36769131100668;0.;0.
$;0.;0;0;0;86;-201.93690574754;288.04322279944;272.678688442749;-.48219757386723
$;.268180995054104;.834005065706401;-.09684582337366;0.92528553978649;-.36669818
$155685;-.09684582337366;0.92528553978649;-.36669818155685;0.;0.;0.;0;0;0;87;-20
$7.78158676197;291.295200270876;282.794022958641;-.48220407739362;.2681813712177
$18;0.8340011857348;-.09815045113866;0.92554148688532;-.36570404016826;-.0981504
$5113866;0.92554148688532;-.36570404016826;0.;0.;0.;0;0;0;88;-213.60464461896;29
$4.53514662878;292.871934479125;-.48221058092002;.268181747381333;.8339973057631
$99;-.09944998327198;.925793950531066;-.36471257448474;-.09944998327198;.9257939
$50531066;-.36471257448474;0.;0.;0.;0;1;0;SBLT_NODE_IDS;4;91001716;2052989;20849
$69;91001761;SBLT_POINTS_TYPES;4;0;0;0;0;SBLT_POINTS_ENTITY_TYPE;4;0;0;0;0;STIFF
$ENER_CREATE;0;
*END
