$
$ANSA_VERSION;22.1.0;
$
$
$ file created by  A N S A  Fri Aug  4 15:29:15 2023
$
$ output from :
$
$ C:/Users/yash/Untitled
$
$ Settings :
$
$ Output format : R13
$
$ Output : All
$
$
$
$
$ANSA_COLOR;Reposition_springs.key;INCLUDE;.717647075653076;.317647069692612;.15
$6862750649452;1.;
*KEYWORD
*NODE
59000001385.806218791618          95.026 53.382998461143       0       0
59000002385.629114085239         -95.394 53.444023565082       0       0
59000003876.295347608462      -109.30606 158.91690823415       0       0
59000004876.402680350873       111.93465 158.88884126767       0       0
59000006 -76.17663789587         216.483-180.76760270915       0       0
59000007 -76.17663789587        -216.483-180.76760270915       0       0
59000008194.534990021116          166.42-145.76581397367       0       0
59000009194.534990021116         -166.42-145.76581397367       0       0
59000010305.297309120305        -100.982-148.14998991792       0       0
59000011305.297309120305         100.982-148.14998991792       0       0
590000121024.24429551111        -110.028 16.084184511841       0       0
590000131024.24429551111         110.628 16.084184511841       0       0
59000014 75.669234880463              0.-635.37446747727       0       0
59000015           -285.              0.           -435.       0       0
*ELEMENT_BEAM
5900000159000001 676263559000001                                                
5900000259000001 654120559000002                                                
5900000359000001 652574759000003                                                
5900000459000001 672574759000004                                                
5900000559000000 500021659000009                                                
5900000659000000 520021659000008                                                
5900000759000000 523267659000006                                                
5900000859000000 503320659000007                                                
5900000959000000 501298559000010                                                
5900001059000000 521298959000011                                                
5900001159000002 652603659000012                                                
5900001259000002 672603659000013                                                
5900001359000000 890001159000014                                                
5900001459000000 890022159000015                                                
*PART
Reposition springs
$      PID|    SECID|      MID|         |     HGID|     GRAV|         |     TMID|
  59000000  59000000  59000000                             0                    
*SECTION_BEAM_TITLE
Reposition springs
$    SECID|   ELFORM|     SHRF|  QR/IRID|      CST|    SCOOR|      NSM|
  59000000         6                                      0.          
$      VOL|     INER|      CID|       CA|   OFFSET|    RRCON|    SRCON|    TRCON|
        1.        1.                  0.        0.        0.        0.        0.
*PART
Reposition springs lower
$      PID|    SECID|      MID|         |     HGID|     GRAV|         |     TMID|
  59000001  59000001  59000001                             0                    
*SECTION_BEAM_TITLE
Reposition springs lower
$    SECID|   ELFORM|     SHRF|  QR/IRID|      CST|    SCOOR|      NSM|
  59000001         6                                      0.          
$      VOL|     INER|      CID|       CA|   OFFSET|    RRCON|    SRCON|    TRCON|
        1.        1.                  0.        0.        0.        0.        0.
*PART
Reposition springs toes
$      PID|    SECID|      MID|         |     HGID|     GRAV|         |     TMID|
  59000002  59000002  59000002  
*SECTION_BEAM_TITLE
Reposition springs toes
$    SECID|   ELFORM|     SHRF|  QR/IRID|      CST|    SCOOR|      NSM|
  59000002         6                                      0.          
$      VOL|     INER|      CID|       CA|   OFFSET|    RRCON|    SRCON|    TRCON|
        1.        1.                  0.        0.        0.        0.        0.
*BOUNDARY_SPC_NODE_ID
         1                                                                      
  59000009                   1         1         1         1         1         1
         2                                                                      
  59000008                   1         1         1         1         1         1
         3                                                                      
  59000007                   1         1         1         1         1         1
         4                                                                      
  59000006                   1         1         1         1         1         1
         5                                                                      
  59000004                   1         1         1         1         1         1
         6                                                                      
  59000003                   1         1         1         1         1         1
         7                                                                      
  59000002                   1         1         1         1         1         1
         8                                                                      
  59000001                   1         1         1         1         1         1
         9                                                                      
  59000013                   1         1         1         1         1         1
        10                                                                      
  59000012                   1         1         1         1         1         1
$ ... 8 like lines cut
*MAT_CABLE_DISCRETE_BEAM_TITLE
Reposition springs
$      MID|       RO|        E|     LCID|       F0|   TMAXF0|    TRAMP|    IREAD|
  59000000     1.E-6        1.                0.05      300.       10.         0
*MAT_CABLE_DISCRETE_BEAM_TITLE
Reposition springs feet
$      MID|       RO|        E|     LCID|       F0|   TMAXF0|    TRAMP|    IREAD|
  59000001     1.E-6        1.                0.15      300.       10.         0
*MAT_CABLE_DISCRETE_BEAM_TITLE
Reposition springs toes
$      MID|       RO|        E|     LCID|       F0|   TMAXF0|    TRAMP|    IREAD|
  59000002     1.E-6        1.                0.01      300.       10.         0
*DEFINE_ELEMENT_DEATH_BEAM_SET
  59000001      350.                                        
*SET_BEAM
  59000001                                                  
  59000001  59000002  59000003  59000004  59000005  59000006  59000007  59000008
  59000009  59000010  59000011  59000012  59000013  59000014
$ANSA_COLOR;99000000;SECTION_BEAM_ELFORM_6;.647058844566345;.301960796117783;.66
$6666686534882;1.;
$ANSA_COLOR;99000001;SECTION_BEAM_ELFORM_6;0.65490198135376;.168627455830574;.58
$4313750267029;1.;
$ANSA_COLOR;99000000;MAT71 MAT_CABLE_DISCRETE_BEAM;.764705896377563;.83137255907
$0587;.129411771893501;1.;
$ANSA_COLOR;99000001;MAT71 MAT_CABLE_DISCRETE_BEAM;.772549033164978;.70196080207
$8247;.050980392843485;1.;
*END
