*KEYWORD
*NODE
       1-9.7749403325523-49.035196963951              0.       0       0
       245.736435319285520.2034275353797              0.       0       0
       347.279176058483316.2689738844142              0.       0       0
       448.543962439857811.9784686306877              0.       0       0
       549.4833468973839-7.1692663128633              0.       0       0
       6 48.598840106019-11.753839390844              0.       0       0
       747.3563252448673-16.043019022067              0.       0       0
       845.8341747368745-19.980701340857              0.       0       0
       944.1137018387315 -23.53680756243              0.       0       0
      1049.45081029266967.39035594638345              0.       0       0
      1138.2283825796684 32.227174341411              0.       0       0
      12-28.948527929225-40.767422414949              0.       0       0
      13  -31.6607885434-38.698765730816              0.       0       0
      14-34.063386629845 -36.60171707985              0.       0       0
      15-49.471700274848-7.2491979929199              0.       0       0
      16-36.242037261628-34.445823214301              0.       0       0
      17-38.261489294005-32.187861650986              0.       0       0
      18-14.327353229041 -47.90330833677              0.       0       0
      19-18.557210406572-46.428762010204              0.       0       0
      20-22.414937700411 -44.69418942045              0.       0       0
$ ... 8674 like lines cut
*ELEMENT_SHELL
       1       1      13      79      81      12
       2       1      14      80      79      13
       3       1      16      82      80      14
       4       1      12      81      87      21
       5       1      17      84      82      16
       6       1      56      83      84      17
       7       1      57      85      83      56
       8       1      58      86      85      57
       9       1      59      88      86      58
      10       1      21      87      89      20
      11       1      60      90      88      59
      12       1      20      89      91      19
      13       1      61      92      90      60
      14       1      19      91      93      18
      15       1      15      94      92      61
      16       1      18      93      95       1
      17       1      46      97      94      15
      18       1       1      95      98      76
      19       1      47      96      97      46
      20       1      48      99      96      47
$ ... 906 like lines cut
*ELEMENT_SOLID
     927       4
     294     295     378     377    1953    1940    1977    1973       0       0
     928       4
     308     306     388     376    1970    2009    1993    1984       0       0
     929       4
     293     308     376     390    2017    1970    1984    2028       0       0
     930       4
     290     291     375     393    2033    2047    2054    2072       0       0
     931       4
     292     293     390     374    2076    2017    2028    2079       0       0
     932       4
     291     292     374     375    2047    2076    2079    2054       0       0
     933       4
     296     294     377     381    2082    1953    1973    2086       0       0
     934       4
     288     290     393     372    2100    2033    2072    2103       0       0
     935       4
     311     289     373     303    2107    2112    2116    2120       0       0
     936       4
     289     285     371     373    2112    2123    2125    2116       0       0
$ ... 14796 like lines cut
*PART
rigid_shell
$      PID|    SECID|      MID|         |     HGID|     GRAV|   ADPOPT|     TMID|
         1         1         1                             0         0          
*SECTION_SHELL_TITLE
rigid_shell
$    SECID|   ELFORM|     SHRF|      NIP|    PROPT|  QR/IRID|    ICOMP|
         1         2        1.        2.        1.         0         0
$       T1|       T2|       T3|       T4|     NLOC|    MAREA|     IDOF|   EDGSET|
        1.        1.        1.        1.                            0.          
*PART
potting
$      PID|    SECID|      MID|    EOSID|     HGID|     GRAV|   ADPOPT|     TMID|
         4         4         2                             0         0          
*SECTION_SOLID_TITLE
potting
$    SECID|   ELFORM|
         4         1
*MAT_RIGID_TITLE
rigid_potting_surface
$      MID|       RO|        E|       PR|        N|   COUPLE|        M| ALIAS_RE|
         1    1.5E-6       10.       0.3        0.        0.        0.
$      CMO|     CON1|     CON2|
       0.0        0.        0.
$       A1|       A2|       A3|       V1|       V2|       V3|
        0.        0.        0.        0.        0.        0.
*MAT_ELASTIC_TITLE
potting-polyester-resin
$      MID|       RO|        E|       PR|       DA|       DB|        K|
         2   1.43E-6      0.92      0.44        0.        0.        0.
*END
