$
$ANSA_VERSION;22.1.0;
$
$
$ file created by  A N S A  Mon Mar 27 19:05:58 2023
$
$ output from :
$
$ C:/Work/SOT/SAFER_HBM_validation/Neck-Kang-2018/SAFER_10.0/twist/Untitled
$
$ Settings :
$
$ Output format : R13
$
$ Output : All
$
$
$
$
*KEYWORD
*NODE
       2-200.19108250493-86.474387159821695.767470445611       0       0
       3-165.02382520232-86.781237639312695.767470445611       0       0
       4-196.33473028828-87.294223327232695.767470445611       0       0
       5-180.65828915745-88.699880546725695.767470445611       0       0
       6-176.72175529315 -88.48654860671695.767470445611       0       0
       7-172.80091288289-88.074735861085695.767470445611       0       0
       8-149.67445615052-83.165961590007670.767470445611       0       0
       9 -153.4985775809-84.125908304783670.767470445611       0       0
      10-157.32734391143 -85.06714544903670.767470445611       0       0
      11-211.60115797896-83.365199410517670.767470445611       0       0
      12-215.36979790515-82.206435619927670.767470445611       0       0
      13-219.13335274871-81.031255210026670.767470445611       0       0
      14-234.29335382492       -76.69502687.434137112278       0       0
      15-234.29335382492       -76.69502691.600803778945       0       0
      16-134.29335382492       -79.69502695.767470445611       0       0
      17-138.16291202445-80.450594229304695.767470445611       0       0
      18-134.29335382492       -79.69502691.600803778945       0       0
      19-134.29335382492       -79.69502687.434137112278       0       0
      20-234.29335382492       -76.69502670.767470445611       0       0
      21-234.29335382492       -76.69502695.767470445611       0       0
$ ... 169 like lines cut
*ELEMENT_SHELL
     153     701     111      15      21      59
     154     701     112     111      59      60
     155     701     113     112      60      63
     156     701     114     113      63      64
     157     701     115     114      64      65
     158     701     116     115      65      34
     159     701     117     116      34      35
     160     701     118     117      35      36
     161     701     119     118      36       2
     162     701     120     119       2       4
     163     701     121     120       4      48
     164     701     122     121      48      49
     165     701     123     122      49      50
     166     701     124     123      50       5
     167     701     125     124       5       6
     168     701     126     125       6       7
     169     701     127     126       7      51
     170     701     128     127      51       3
     171     701     129     128       3      56
     172     701     130     129      56      57
$ ... 136 like lines cut
*PART
SECTION_SHELL
$      PID|    SECID|      MID|         |     HGID|     GRAV|   ADPOPT|     TMID|
       701       701       701                             0         0          
*SECTION_SHELL_TITLE
SECTION_SHELL
$    SECID|   ELFORM|     SHRF|      NIP|    PROPT|  QR/IRID|    ICOMP|
       701         2        1.        2.        1.         0         0
$       T1|       T2|       T3|       T4|     NLOC|    MAREA|     IDOF|   EDGSET|
        1.        1.        1.        1.                            0.          
*MAT_RIGID_TITLE
Default MAT20 MAT_RIGID
$      MID|       RO|        E|       PR|        N|   COUPLE|        M| ALIAS_RE|
       701    1.5E-6       10.       0.3        0.        0.        0.
$      CMO|     CON1|     CON2|
       1.0        7.        7.
$       A1|       A2|       A3|       V1|       V2|       V3|
        0.        0.        0.        0.        0.        0.
$ANSA_COLOR;701;SECTION_SHELL;.737254917621613;.584313750267029;.239215686917305
$;1.;
$ANSA_COLOR;701;MAT20 MAT_RIGID;.756862759590149;0.18823529779911;.5176470875740
$05;1.;
*END
