$
$ANSA_VERSION;23.1.2;
$
$
$ file created by  A N S A  Fri Nov 24 13:34:33 2023
$
$ output from :
$
$ C:/Work/SOT/SAFER_HBM_validation/Front-Full-body-GS2-Sled-test-crandell-2011/S
$ AFER_10.0/Untitled
$
$ Settings :
$
$ Output format : R13
$
$ Output : All
$
$
$
$
$ANSA_COLOR;Reposition_springs.key;INCLUDE;.717647075653076;.317647069692612;.15
$6862750649452;1.;
*KEYWORD
*NODE
99000001       -121.8421-.00247605154001-676.62394847889       0       0
*ELEMENT_BEAM
9900000199000000 490001099000001                                                
*PART
Reposition springs
$      PID|    SECID|      MID|         |     HGID|     GRAV|         |     TMID|
  99000000  99000000  99000000                             0                    
*SECTION_BEAM_TITLE
Reposition springs
$    SECID|   ELFORM|     SHRF|  QR/IRID|      CST|    SCOOR|      NSM|
  99000000         6                                      0.          
$      VOL|     INER|      CID|       CA|   OFFSET|    RRCON|    SRCON|    TRCON|
        1.        1.                  0.        0.        0.        0.        0.
*BOUNDARY_SPC_NODE_ID
$       ID|                              HEADING                                |
        11                                                                      
$      NID|      CID|     DOFX|     DOFY|     DOFZ|    DOFRX|    DOFRY|    DOFRZ|
  99000001                   1         1         1         1         1         1
*MAT_CABLE_DISCRETE_BEAM_TITLE
Reposition springs
$      MID|       RO|        E|     LCID|       F0|   TMAXF0|    TRAMP|    IREAD|
  99000000     1.E-6        1.                0.2      280.       10.         0
*DATABASE_HISTORY_BEAM
$      ID1|
  99000001
*DEFINE_ELEMENT_DEATH_BEAM_SET
  99000005      300.                                        
*SET_BEAM
  99000005      300.                                        
  99000001
$ANSA_COLOR;99000000;SECTION_BEAM_ELFORM_6;.647058844566345;.301960796117783;.66
$6666686534882;1.;
$ANSA_COLOR;99000000;MAT71 MAT_CABLE_DISCRETE_BEAM;.764705896377563;.83137255907
$0587;.129411771893501;1.;
*END
