$
$ANSA_VERSION;22.1.0;
$
$
$ file created by  A N S A  Wed May 24 08:48:43 2023
$
$ output from :
$
$ C:/Work/SOT/SAFER_HBM_validation/Neck-Kang-2018/dyna/Untitled
$
$ Settings :
$
$ Output format : R13
$
$ Output : All
$
$
$
$
*KEYWORD
*NODE
       1              0.           165.5            69.5       0       0
       2              0.           145.5            69.5       0       0
       3              0.152.41140136569479.0110755690264       0       0
       4              0.149.62482099783477.5921116945316       0       0
       5              0.147.411963766142 75.380788200917       0       0
       6              0.165.01000426794466.4081043311236       0       0
       7              0.145.98999573205772.5918956688764       0       0
       8              0.163.58803623385863.6192117990831       0       0
       9              0.145.98999573205766.4081043311236       0       0
      10              0.147.41196376614163.6192117990831       0       0
      11              0.149.62482099783561.4078883054684       0       0
      12              0.152.41140136569459.9889244309736       0       0
      13              0.           155.5            59.5       0       0
      14              0.158.58859863430659.9889244309736       0       0
      15              0.161.37517900216561.4078883054684       0       0
      16              0.165.01000426794472.5918956688764       0       0
      17              0.163.58803623385875.3807882009169       0       0
      18              0.161.37517900216577.5921116945316       0       0
      19              0.158.58859863430679.0110755690264       0       0
      20              0.           155.5            79.5       0       0
$ ... 12479 like lines cut
*ELEMENT_SHELL
      49       1     853     852     807     808
      50       1     808     807     762     763
      51       1     763     762     717     718
      52       1     718     717     672     673
      53       1     673     672     627     628
      54       1     628     627     582     583
      55       5   11954   12190   12189   12187
      56       5   11955   11954   12187   12186
      57       5   11956   11955   12186   12185
      58       5   11957   11956   12185   12183
      59       5   11958   11957   12183   12182
      60       5   11959   11958   12182   12180
      61       5   11960   11959   12180   12178
      62       5   11961   11960   12178   12176
      63       5   12173   11961   12176   12174
      64       5   11962   12184   12190   11954
      65       5   11963   11962   11954   11955
      66       5   11964   11963   11955   11956
      67       5   11965   11964   11956   11957
      68       5   11966   11965   11957   11958
$ ... 9330 like lines cut
*ELEMENT_SOLID
    9519       4
   12095   12236   12237   12096   16239   16232   16225   16257       0       0
    9520       4
   12096   12237   12201   12097   16257   16225   16250   16242       0       0
    9521       4
   12094   12235   12236   12095   16272   16271   16232   16239       0       0
    9522       4
   12093   12196   12235   12094   16265   16285   16271   16272       0       0
    9523       4
   12072   12234   12233   12068   16286   16292   16297   16302       0       0
    9524       4
   12071   12230   12234   12072   16308   16309   16292   16286       0       0
    9525       4
   12068   12233   12232   12067   16302   16297   16316   16324       0       0
    9526       4
   12067   12232   12231   12069   16324   16316   16333   16339       0       0
    9527       4
   12069   12231   12225   12075   16339   16333   16341   16344       0       0
    9528       4
   12070   12229   12230   12071   16345   16348   16309   16308       0       0
$ ... 5540 like lines cut
*CONSTRAINED_RIGID_BODIES
         2         5         0
*PART
elliptical_ring
$      PID|    SECID|      MID|         |     HGID|     GRAV|   ADPOPT|     TMID|
         1         1         1                             0         0          
*SECTION_SHELL_TITLE
elliptical_ring
$    SECID|   ELFORM|     SHRF|      NIP|    PROPT|  QR/IRID|    ICOMP|
         1         2        1.        2.        1.         0         0
$       T1|       T2|       T3|       T4|     NLOC|    MAREA|     IDOF|   EDGSET|
        1.        1.        1.        1.                            0.          
*PART
sled
$      PID|    SECID|      MID|         |     HGID|     GRAV|   ADPOPT|     TMID|
         2         2         2                             0         0          
*SECTION_SHELL_TITLE
sled
$    SECID|   ELFORM|     SHRF|      NIP|    PROPT|  QR/IRID|    ICOMP|
         2         2        1.        2.        1.         0         0
$       T1|       T2|       T3|       T4|     NLOC|    MAREA|     IDOF|   EDGSET|
        5.        5.        5.        5.                            0.          
*PART
potting
$      PID|    SECID|      MID|    EOSID|     HGID|     GRAV|   ADPOPT|     TMID|
         4         4         4                             0         0          
*SECTION_SOLID_TITLE
potting
$    SECID|   ELFORM|
         4         1
*PART
pot_bottom
$      PID|    SECID|      MID|         |     HGID|     GRAV|   ADPOPT|     TMID|
         5         5         5                             0         0          
*SECTION_SHELL_TITLE
pot_bottom
$    SECID|   ELFORM|     SHRF|      NIP|    PROPT|  QR/IRID|    ICOMP|
         5         2        1.        2.        1.         0         0
$       T1|       T2|       T3|       T4|     NLOC|    MAREA|     IDOF|   EDGSET|
        1.        1.        1.        1.                            0.          
*DEFINE_COORDINATE_SYSTEM_TITLE
base plate axis
         1        0.       -5.      -30.        1.       -5.      -30.
        0.       -4.      -30.
*DEFINE_COORDINATE_SYSTEM_TITLE
pot_base
         2-27.7992311.48423651   79.0775-26.7992311.48423651   79.0775
-27.7992312.48423651   79.0775
*MAT_RIGID_TITLE
ring_rigid
$      MID|       RO|        E|       PR|        N|   COUPLE|        M| ALIAS_RE|
         1    1.5E-6       10.       0.3        0.        0.        0.
$      CMO|     CON1|     CON2|
      -1.0         2
$       A1|       A2|       A3|       V1|       V2|       V3|
        0.        0.        0.        0.        0.        0.
*MAT_RIGID_TITLE
sled_rigid
$      MID|       RO|        E|       PR|        N|   COUPLE|        M| ALIAS_RE|
         2    1.5E-6       10.       0.3        0.        0.        0.
$      CMO|     CON1|     CON2|
      -1.0         2111110
$       A1|       A2|       A3|       V1|       V2|       V3|
        0.        0.        0.        0.        0.        0.
*MAT_ELASTIC_TITLE
Potting
$      MID|       RO|        E|       PR|       DA|       DB|        K|
         4   1.14E-6      3.42      0.33        0.        0.        0.
*MAT_RIGID_TITLE
rigid_pot_base
$      MID|       RO|        E|       PR|        N|   COUPLE|        M| ALIAS_RE|
         5    1.5E-6       10.       0.3        0.        0.        0.
$      CMO|     CON1|     CON2|
       0.0        0.        0.
$       A1|       A2|       A3|       V1|       V2|       V3|
        0.        0.        0.        0.        0.        0.
*DATABASE_CROSS_SECTION_PLANE_ID
$     CSID|                                                              HEADING|
         1potting_loadcell                                                      
$     PSID|      XCT|      YCT|      ZCT|      XCH|      YCH|      ZCH|   RADIUS|
         0      -28.        0.       79.      -28.        0.       89.      150.
$     XHEV|     YHEV|     ZHEV|     LENL|     LENM|       ID|    ITYPE|
-49.967193 28.883002       50.                             0         0
*SET_PART_TITLE
potting
         1                                        
         4
$ANSA_COLOR;1;SECTION_SHELL;.952941179275513;.874509811401367;.105882354080677;1
$.;
$ANSA_COLOR;2;SECTION_SHELL;.960784316062927;0.74117648601532;.023529412224889;1
$.;
$ANSA_COLOR;4;SECTION_SOLID;.980392158031464;.474509805440903;.862745106220245;1
$.;
$ANSA_COLOR;5;SECTION_SHELL;.988235294818878;.341176480054855;.780392169952393;1
$.;
$ANSA_COLOR;1;MAT20 MAT_RIGID;0.5686274766922;.407843142747879;0.5686274766922;1
$.;
$ANSA_COLOR;2;MAT20 MAT_RIGID;.576470613479614;.274509817361832;.486274510622025
$;1.;
$ANSA_COLOR;4;MAT1 MAT_ELASTIC;.596078455448151;.007843137718737;.32549020648002
$6;1.;
$ANSA_COLOR;5;MAT20 MAT_RIGID;.603921592235565;.874509811401367;.243137255311012
$;1.;
*END
