$
$ANSA_VERSION;22.1.0;
$
$
$ file created by  A N S A  Fri May 13 18:08:56 2022
$
$ output from :
$
$ Z:/Master/Examensarbete/Simulations/3pt_bending/Ivarrson_2009/1.38/1_38_main.a
$ nsa
$
$ Settings :
$
$ Output format : R13
$
$ Output : All
$
$ANSA_USER_ATTRIBUTES;Femur_cut_138.key;INCLUDE;DM/Status;TEXT;WIP;
$
$
$
$
$
$
$ANSA_COLOR;Femur_cut_138.key;INCLUDE;0.91372549533844;.466666668653488;.2705882
$48968124;1.;
*KEYWORD
*PARAMETER
I DEFBRAIN         1
I ACTIVE           0
I A_LOWEX          0
I A_UPEX           0
I A_NECK           0
I A_LUMBAR         0
I A_APF            1
I A_MLF_N          0
I A_MLF_L          0
R ARMJOINT     0.001
R LEGJOINT     0.001
R E_refT       0.001
R S_refT       0.001
R N_refT       0.001
R L_refT       0.001
R MLF_refT      500.
*PARAMETER_EXPRESSION
R RGDTIME DEFBRAIN*10000+0.000001                                               
R ARMKILL ARMJOINT+1E-3                                                         
R LEGKILL LEGJOINT+1E-3                                                         
R MLF_T0  MLF_refT+20                                                           
R MLF_T   MLF_T0+1E-3                                                           
I M3111130-3111130*ACTIVE*A_LOWEX                                               
I M3111131-3111131*ACTIVE*A_LOWEX                                               
I M3211131-3211131*ACTIVE*A_LOWEX                                               
I M3111132-3111132*ACTIVE*A_LOWEX                                               
I M3211132-3211132*ACTIVE*A_LOWEX                                               
I M3111133-3111133*ACTIVE*A_LOWEX                                               
I M3211133-3211133*ACTIVE*A_LOWEX                                               
I M3111134-3111134*ACTIVE*A_LOWEX                                               
I M3211134-3211134*ACTIVE*A_LOWEX                                               
I M3111135-3111135*ACTIVE*A_LOWEX                                               
I M3211135-3211135*ACTIVE*A_LOWEX                                               
I M3541028-3541028*ACTIVE*A_UPEX                                                
I M3541048-3541048*ACTIVE*A_UPEX                                                
I M3551028-3551028*ACTIVE*A_UPEX                                                
I M3551048-3551048*ACTIVE*A_UPEX                                                
I M3641028-3641028*ACTIVE*A_UPEX                                                
I M3641048-3641048*ACTIVE*A_UPEX                                                
I M3651028-3651028*ACTIVE*A_UPEX                                                
I M3651048-3651048*ACTIVE*A_UPEX                                                
I M3701010-3701019*ACTIVE*A_NECK                                                
I M3751010-3751019*ACTIVE*A_NECK                                                
I M3701020-3701029*ACTIVE*A_NECK                                                
I M3751020-3751029*ACTIVE*A_NECK                                                
I M3701030-3701039*ACTIVE*A_NECK                                                
I M3751030-3751039*ACTIVE*A_NECK                                                
I M3701040-3701049*ACTIVE*A_NECK                                                
I M3751040-3751049*ACTIVE*A_NECK                                                
I M3701050-3701059*ACTIVE*A_NECK                                                
I M3751050-3751059*ACTIVE*A_NECK                                                
I M3701060-3701069*ACTIVE*A_NECK                                                
I M3751060-3751069*ACTIVE*A_NECK                                                
I M3701070-3701079*ACTIVE*A_NECK                                                
I M3751070-3751079*ACTIVE*A_NECK                                                
I M3701080-3701089*ACTIVE*A_NECK                                                
I M3751080-3751089*ACTIVE*A_NECK                                                
I M3701090-3701099*ACTIVE*A_NECK                                                
I M3751090-3751099*ACTIVE*A_NECK                                                
I M3701100-3701109*ACTIVE*A_NECK                                                
I M3751100-3751109*ACTIVE*A_NECK                                                
$ ... 180 like lines cut
I M3301010-3301019*ACTIVE*A_LUMBAR                                              
I M3351010-3351019*ACTIVE*A_LUMBAR                                              
I M3301020-3301029*ACTIVE*A_LUMBAR                                              
I M3351020-3351029*ACTIVE*A_LUMBAR                                              
I M3301030-3301039*ACTIVE*A_LUMBAR                                              
I M3351030-3351039*ACTIVE*A_LUMBAR                                              
I M3301040-3301049*ACTIVE*A_LUMBAR                                              
I M3351040-3351049*ACTIVE*A_LUMBAR                                              
I M3301050-3301059*ACTIVE*A_LUMBAR                                              
I M3351050-3351059*ACTIVE*A_LUMBAR                                              
I M3302010-3302019*ACTIVE*A_LUMBAR                                              
I M3352010-3352019*ACTIVE*A_LUMBAR                                              
I M3302020-3302029*ACTIVE*A_LUMBAR                                              
I M3352020-3352029*ACTIVE*A_LUMBAR                                              
I M3302030-3302039*ACTIVE*A_LUMBAR                                              
I M3352030-3352039*ACTIVE*A_LUMBAR                                              
I M3302040-3302049*ACTIVE*A_LUMBAR                                              
I M3352040-3352049*ACTIVE*A_LUMBAR                                              
I M3302050-3302059*ACTIVE*A_LUMBAR                                              
I M3352050-3352059*ACTIVE*A_LUMBAR                                              
$ ... 136 like lines cut
*CONTROL_TERMINATION
38.1326371                                                  
*CONTROL_TIMESTEP
  0.000455       0.9         0           -0.000495         0                    
*NODE
   70487338.371667675225137.519887031744153.592051376366       0       0
   70488335.323747843317137.515837439141152.465351039945       0       0
   70489332.310543476265137.553717733018151.258469009123       0       0
   70490329.325938989272137.622224361655149.998740828886       0       0
   70491326.359099105004 137.71236886168148.711083423133       0       0
   70492323.402234373942137.811827754778147.409980523467       0       0
   70499338.227249585459141.442041588241152.999658968951       0       0
   70500335.159224770081 141.19436008644151.909735112295       0       0
   70501332.112624960141140.980864061735150.766938886435       0       0
   70502329.081003542847 140.79130923036149.598215496553       0       0
   70503326.058130976529140.618342535196148.418412816796       0       0
   70504323.041700172105140.450055935628147.231314007584       0       0
   70511338.322431409382145.319642690453151.952647652807       0       0
   70512335.216947110802144.831870988422150.906058731492       0       0
   70513332.119597358243144.370540354106149.833906766173       0       0
   70514329.023604510897143.926465771689148.762746622221       0       0
   70515325.927344762799143.493929590304147.697357124038       0       0
   70516 322.83399338528143.061439207038 146.63082086086       0       0
   70523338.449644607851149.189697907171150.847936670504       0       0
   70524335.303659601061148.462492243851149.847075174227       0       0
$ ... 10424 like lines cut
*ELEMENT_SOLID
  140453 4736331
   70644   70716   70728   70656   70643   70715   70727   70655       0       0
  140454 4736331
   70645   70717   70729   70657   70644   70716   70728   70656       0       0
  140455 4736331
   70646   70718   70730   70658   70645   70717   70729   70657       0       0
  140456 4736331
   70647   70719   70731   70659   70646   70718   70730   70658       0       0
  140457 4736331
   70648   70720   70732   70660   70647   70719   70731   70659       0       0
  140464 4736331
   70656   70728   70740   70668   70655   70727   70739   70667       0       0
  140465 4736331
   70657   70729   70741   70669   70656   70728   70740   70668       0       0
  140466 4736331
   70658   70730   70742   70670   70657   70729   70741   70669       0       0
  140467 4736331
   70659   70731   70743   70671   70658   70730   70742   70670       0       0
  140468 4736331
   70660   70732   70744   70672   70659   70731   70743   70671       0       0
$ ... 18668 like lines cut
*PART
LeftFemur_Solids_Cortical
   4736330   4736330   4736336                             0         0          
*SECTION_SOLID_TITLE
LeftFemur_Solids_Cortical
   4736330         2
*PART
LeftFemur_Solids_Spongy
   4736331   4736331   4736330                             0         0          
*SECTION_SOLID_TITLE
LeftFemur_Solids_Spongy
   4736331         2
*MAT_PIECEWISE_LINEAR_PLASTICITY_TITLE
Bone spongy
   4736330     1.E-6        .2       0.3      0.85        0.     1.E20        0.
        0.        0.                            0.
        0.        0.        0.        0.        0.        0.        0.        0.
        0.        0.        0.        0.        0.        0.        0.        0.
*MAT_PIECEWISE_LINEAR_PLASTICITY_TITLE
Bone cortical
   4736336     2.E-6      19.9       0.3     0.108        0.     1.E20        0.
        0.        0.                            0.
        0.        0.        0.        0.        0.        0.        0.        0.
        0.        0.        0.        0.        0.        0.        0.        0.
*SET_PART_TITLE
Cortical_PID
         6                                        
   4736330
$ANSA_COLOR;4736330;SECTION_SOLID;0.61176472902298;0.95686274766922;.83137255907
$0587;1.;
$ANSA_COLOR;4736331;SECTION_SOLID;.964705884456635;.968627452850342;.03529411926
$8656;1.;
$ANSA_COLOR;4736329;MAT1 MAT_ELASTIC;.607843160629272;.592156887054443;.98823529
$4818878;1.;
$ANSA_COLOR;4736330;MAT1 MAT_ELASTIC;.780392169952393;.760784327983856;0.1019607
$8568697;1.;
$ANSA_COLOR;4736336;MAT24 MAT_PIECEWISE_LINEAR_PLASTICITY;.862745106220245;0.435
$29412150383;.694117665290833;1.;
$ANSA_USER_ATTRIBUTES;SECTION_SOLID;User/cad_material;TEXT;RW;YES;;;
$ANSA_PART;PART;ID;853;NAME;LeftFemur_Solids_Cortical@1;BELONGS_HERE;YES;STUDY_V
$ERSION;0;PID_OFFSET;0;COLOR;239;147;133;0;IS_COLOR_ACTIVE;1;PART_TYPE;Undefined
$;ATTRIBUTES;2;DM/File Type;ANSA;DM/Status;WIP;CONTAINS;SECTION_SOLID;4736330;
$ANSA_PART;PART;ID;854;NAME;LeftFemur_Solids_Spongy@1;BELONGS_HERE;YES;STUDY_VER
$SION;0;PID_OFFSET;0;COLOR;150;9;66;0;IS_COLOR_ACTIVE;1;PART_TYPE;Undefined;ATTR
$IBUTES;2;DM/File Type;ANSA;DM/Status;WIP;CONTAINS;SECTION_SOLID;4736331;
*END
