$
$ANSA_VERSION;22.1.0;
$
$
$ file created by  A N S A  Tue Oct 24 16:11:17 2023
$
$ output from :
$
$ C:/Users/yash/Untitled
$
$ Settings :
$
$ Output format : R13
$
$ Output : All
$
$
$
$
*KEYWORD
*NODE
   11912 -65.07982157824-3.8952421984686            27.5       0       0
   11913-63.948402844025-10.160800278607            27.5       0       0
   119145.8824323148768114.7286546469696            27.5       0       0
   119153.2441413567423219.6143571973358            27.5       0       0
   119160.2068058634815223.7068932704216            27.5       0       0
   11917-3.133065768480627.1407552666693            27.5       0       0
   11918-6.7557108358113 30.025531913608            27.5       0       0
   11919-11.03499914991532.6076243220421            27.5       0       0
   11920-16.05118528877134.7418747829136            27.5       0       0
   11921-21.77771080487736.2000881234954            27.5       0       0
   11922-28.060230836868-37.625270953006            27.5       0       0
   11923-34.28164236655836.2105121974453            27.5       0       0
   11924 -40.0197822527234.7587278248579            27.5       0       0
   11925-45.07459501624932.6132198115238            27.5       0       0
   11926-49.357410922917 30.030662505946            27.5       0       0
   11927-52.97869658519127.1486136174045            27.5       0       0
   11928-56.31524325062623.7209590798579            27.5       0       0
   11929-59.350641831868 19.636127895859            27.5       0       0
   11930-61.99117164721214.7548492989001            27.5       0       0
   11931-63.9952772162389.09542303641686            27.5       0       0
$ ... 3280 like lines cut
*ELEMENT_SHELL
      55       5   11954   12190   12189   12187
      56       5   11955   11954   12187   12186
      57       5   11956   11955   12186   12185
      58       5   11957   11956   12185   12183
      59       5   11958   11957   12183   12182
      60       5   11959   11958   12182   12180
      61       5   11960   11959   12180   12178
      62       5   11961   11960   12178   12176
      63       5   12173   11961   12176   12174
      64       5   11962   12184   12190   11954
      65       5   11963   11962   11954   11955
      66       5   11964   11963   11955   11956
      67       5   11965   11964   11956   11957
      68       5   11966   11965   11957   11958
      69       5   11967   11966   11958   11959
      70       5   11968   11967   11959   11960
      71       5   11969   11968   11960   11961
      72       5   12171   11969   11961   12173
      73       5   11970   12188   12184   11962
      74       5   11971   11970   11962   11963
$ ... 258 like lines cut
*ELEMENT_SOLID
    9519       4
   12095   12236   12237   12096   16239   16232   16225   16257       0       0
    9520       4
   12096   12237   12201   12097   16257   16225   16250   16242       0       0
    9521       4
   12094   12235   12236   12095   16272   16271   16232   16239       0       0
    9522       4
   12093   12196   12235   12094   16265   16285   16271   16272       0       0
    9523       4
   12072   12234   12233   12068   16286   16292   16297   16302       0       0
    9524       4
   12071   12230   12234   12072   16308   16309   16292   16286       0       0
    9525       4
   12068   12233   12232   12067   16302   16297   16316   16324       0       0
    9526       4
   12067   12232   12231   12069   16324   16316   16333   16339       0       0
    9527       4
   12069   12231   12225   12075   16339   16333   16341   16344       0       0
    9528       4
   12070   12229   12230   12071   16345   16348   16309   16308       0       0
$ ... 5540 like lines cut
*PART
potting
$      PID|    SECID|      MID|    EOSID|     HGID|     GRAV|   ADPOPT|     TMID|
         4         4         4                             0         0          
*SECTION_SOLID_TITLE
potting
$    SECID|   ELFORM|
         4         1
*PART
pot_bottom
$      PID|    SECID|      MID|         |     HGID|     GRAV|   ADPOPT|     TMID|
         5         5         5                             0         0          
*SECTION_SHELL_TITLE
pot_bottom
$    SECID|   ELFORM|     SHRF|      NIP|    PROPT|  QR/IRID|    ICOMP|
         5         2        1.        2.        1.         0         0
$       T1|       T2|       T3|       T4|     NLOC|    MAREA|     IDOF|   EDGSET|
        1.        1.        1.        1.                            0.          
*MAT_ELASTIC_TITLE
Potting
$      MID|       RO|        E|       PR|       DA|       DB|        K|
         4   1.14E-6      3.42      0.33        0.        0.        0.
*MAT_RIGID_TITLE
rigid_pot_base
$      MID|       RO|        E|       PR|        N|   COUPLE|        M| ALIAS_RE|
         5    1.5E-6       10.       0.3        0.        0.        0.
$      CMO|     CON1|     CON2|
       0.0        0.        0.
$       A1|       A2|       A3|       V1|       V2|       V3|
        0.        0.        0.        0.        0.        0.
*DATABASE_CROSS_SECTION_PLANE_ID
$     CSID|                                                              HEADING|
         1potting_loadcell                                                      
$     PSID|      XCT|      YCT|      ZCT|      XCH|      YCH|      ZCH|   RADIUS|
         0      -28.        0.       60.      -28.        0.       70.       55.
$     XHEV|     YHEV|     ZHEV|     LENL|     LENM|       ID|    ITYPE|
-49.967193 28.883002       50.                             0         0
$ANSA_COLOR;4;SECTION_SOLID;.780392169952393;.321568638086319;.317647069692612;1
$.;
$ANSA_COLOR;5;SECTION_SHELL;.788235306739807;0.18823529779911;.239215686917305;1
$.;
$ANSA_COLOR;4;MAT1 MAT_ELASTIC;.596078455448151;.007843137718737;.32549020648002
$6;1.;
$ANSA_COLOR;5;MAT20 MAT_RIGID;.603921592235565;.874509811401367;.243137255311012
$;1.;
$ANSA_USER_ATTRIBUTES;SECTION_SHELL;User/cad_material;TEXT;RW;YES;;;
$ANSA_USER_ATTRIBUTES;SECTION_SHELL;User/cad_thickness;TEXT;RW;YES;;;
$ANSA_USER_ATTRIBUTES;SECTION_SOLID;User/cad_material;TEXT;RW;YES;;;
$ANSA_PART;GROUP;ID;2;NAME;setup.key;BELONGS_HERE;YES;PID_OFFSET;0;COLOR;203;202
$;97;0;IS_COLOR_ACTIVE;-1;PART_TYPE;Undefined;ATTRIBUTES;2;DM/File Type;ANSA;DM/
$Status;WIP;CONTAINS;ANSAPART;4-8;
$ANSA_PART;PART;ID;1;NAME;Untitled;BELONGS_HERE;YES;STUDY_VERSION;0;PID_OFFSET;0
$;COLOR;248;34;96;0;IS_COLOR_ACTIVE;-1;PART_TYPE;Undefined;ATTRIBUTES;2;DM/File 
$Type;ANSA;DM/Status;WIP;
$ANSA_PART;PART;ID;4;MID;1;NAME;elliptical_ring;BELONGS_HERE;YES;STUDY_VERSION;0
$;PID_OFFSET;0;COLOR;208;134;56;0;IS_COLOR_ACTIVE;-1;PART_TYPE;Undefined;ATTRIBU
$TES;2;DM/File Type;ANSA;DM/Status;WIP;
$ANSA_PART;PART;ID;5;MID;5;NAME;pot_bottom;BELONGS_HERE;YES;STUDY_VERSION;0;PID_
$OFFSET;0;COLOR;210;100;35;0;IS_COLOR_ACTIVE;-1;PART_TYPE;Undefined;ATTRIBUTES;2
$;DM/File Type;ANSA;DM/Status;WIP;CONTAINS;SECTION_SHELL;5;
$ANSA_PART;PART;ID;6;MID;2;NAME;sled;BELONGS_HERE;YES;STUDY_VERSION;0;PID_OFFSET
$;0;COLOR;212;66;15;0;IS_COLOR_ACTIVE;-1;PART_TYPE;Undefined;ATTRIBUTES;2;DM/Fil
$e Type;ANSA;DM/Status;WIP;
$ANSA_PART;PART;ID;7;MID;4;NAME;potting;BELONGS_HERE;YES;STUDY_VERSION;0;PID_OFF
$SET;0;COLOR;215;32;249;0;IS_COLOR_ACTIVE;-1;PART_TYPE;Undefined;ATTRIBUTES;2;DM
$/File Type;ANSA;DM/Status;WIP;CONTAINS;SECTION_SOLID;4;
$ANSA_PART;PART;ID;8;NAME;NO PID ELMNTs;BELONGS_HERE;YES;STUDY_VERSION;0;PID_OFF
$SET;0;COLOR;217;253;228;0;IS_COLOR_ACTIVE;-1;PART_TYPE;Undefined;ATTRIBUTES;2;D
$M/File Type;ANSA;DM/Status;WIP;CONTAINS;DATABASE_CROSS_SECTION_PLANE;1;
*END
