$
$ANSA_VERSION;22.1.0;
$
$
$ file created by  A N S A  Tue Oct 24 17:09:40 2023
$
$ output from :
$
$ C:/Work/SOT/SAFER_HBM_validation/Head-Neck-Stemper-2004/SAFER10.0/1.8/Untitled
$ 
$
$ Settings :
$
$ Output format : R13
$
$ Output : All
$
$ANSA_USER_ATTRIBUTES;Reposition_springs.key;INCLUDE;DM/Status;TEXT;WIP;
$
$
$
$
$
$
$ANSA_COLOR;Reposition_springs.key;INCLUDE;.717647075653076;.317647069692612;.15
$6862750649452;1.;
*KEYWORD
*NODE
99000001       -148.4421-.13247605154001 649.77605152111       0       0
*ELEMENT_BEAM
9900000199000000 410000199000001                                                
*PART
Reposition springs
$      PID|    SECID|      MID|         |     HGID|     GRAV|         |     TMID|
  99000000  99000000  99000000                             0                    
*SECTION_BEAM_TITLE
Reposition springs
$    SECID|   ELFORM|     SHRF|  QR/IRID|      CST|    SCOOR|      NSM|
  99000000         6                                      0.          
$      VOL|     INER|      CID|       CA|   OFFSET|    RRCON|    SRCON|    TRCON|
        1.        1.                  0.        0.        0.        0.        0.
*BOUNDARY_SPC_NODE_ID
        11                                                                      
  99000001                   1         1         1         1         1         1
*MAT_CABLE_DISCRETE_BEAM_TITLE
Reposition springs
$      MID|       RO|        E|     LCID|       F0|   TMAXF0|    TRAMP|    IREAD|
  99000000     1.E-6        1.                0.09&Pre_sim         10.         0
$ANSA_ID;3;
*DATABASE_HISTORY_BEAM
  99000001
$ANSA_ID;1;
*DEFINE_ELEMENT_DEATH_BEAM_SET
  99000005&Pre_sim                                          
*SET_BEAM
  99000005                                                  
  99000001
$ANSA_COLOR;99000000;SECTION_BEAM_ELFORM_6;.647058844566345;.301960796117783;.66
$6666686534882;1.;
$ANSA_COLOR;99000000;MAT71 MAT_CABLE_DISCRETE_BEAM;.764705896377563;.83137255907
$0587;.129411771893501;1.;
$ANSA_NAME_COMMENT;3;DATABASE_HISTORY_BEAM;DATABASE_HISTORY_OPTION@_2;;NO;NO;NO;
$ANSA_NAME_COMMENT;1;DEFINE_ELEMENT_DEATH_BEAM_SET;Define Element Death;;NO;NO;N
$O;
$ANSA_PART;GROUP;ID;2;NAME;setup.key;PID_OFFSET;0;COLOR;203;202;97;0;IS_COLOR_AC
$TIVE;1;PART_TYPE;Undefined;ATTRIBUTES;2;DM/File Type;ANSA;DM/Status;WIP;CONTAIN
$S;ANSAPART;8;
$ANSA_PART;GROUP;ID;179;NAME;main.key;PID_OFFSET;0;COLOR;203;202;97;0;IS_COLOR_A
$CTIVE;-1;PART_TYPE;Undefined;ATTRIBUTES;2;DM/File Type;ANSA;DM/Status;WIP;CONTA
$INS;ANSAPART;171;
$ANSA_PART;PART;ID;8;NAME;NO PID ELMNTs;STUDY_VERSION;0;PID_OFFSET;0;COLOR;199;4
$6;156;0;IS_COLOR_ACTIVE;1;PART_TYPE;Undefined;ATTRIBUTES;2;DM/File Type;ANSA;DM
$/Status;WIP;CONTAINS;DATABASE_HISTORY_BEAM;3;
$ANSA_PART;PART;ID;171;NAME;OTHER ELMNTs;STUDY_VERSION;0;PID_OFFSET;0;COLOR;197;
$80;177;0;IS_COLOR_ACTIVE;-1;PART_TYPE;Undefined;ATTRIBUTES;2;DM/File Type;ANSA;
$DM/Status;WIP;CONTAINS;SECTION_BEAM_ELFORM_6;99000000;
*END
