$
$ANSA_VERSION;23.1.2;
$
$
$ file created by  A N S A  Wed Nov  8 12:53:34 2023
$ output from :
$
$ C:/Work/SOT/SAFER_HBM_validation/Thorax-table-top-Kent-2004/SAFER_10.0/02_diag
$ onal_belt/Untitled
$
$ Settings :
$
$ Output format : R11.2
$
$ Output : All
$
$ANSA_USER_ATTRIBUTES;Diagonal_belt.key;INCLUDE;DM/Status;TEXT;WIP;DM/IO Index;T
$EXT;17;
$
$
$
$
$
$
$ANSA_COLOR;Diagonal_belt.key;INCLUDE;0.82745099067688;.776470601558685;0.741176
$48601532;1.;
*KEYWORD
*NODE
95000001        284.4467       469.45862            535.       0       0
95000002        276.1563       475.05054            535.       0       0
95000003        276.1563       475.05054            525.       0       0
95000004        284.4467       469.45862            525.       0       0
95000005       292.73706        463.8667            535.       0       0
95000006       292.73706        463.8667            525.       0       0
95000007       301.02744       458.27475            535.       0       0
95000008       301.02744       458.27475            525.       0       0
95000009        284.4467       469.45862            545.       0       0
95000010        276.1563       475.05054            545.       0       0
95000011        309.3178       452.68283            535.       0       0
95000012        309.3178       452.68283            525.       0       0
95000013       292.73706        463.8667            545.       0       0
95000014        317.6082        447.0909            535.       0       0
95000015        317.6082        447.0909            525.       0       0
95000016       301.02744       458.27475            545.       0       0
95000017       325.89856       441.49896            535.       0       0
95000018       325.89856       441.49896            525.       0       0
95000019        284.4467       469.45862            555.       0       0
95000020        276.1563       475.05054            555.       0       0
$ ... 1458 like lines cut
*CONSTRAINED_NODAL_RIGID_BODY
  95002000                 997                   0         0         0
  95002008                 996                   0         0         0
*ELEMENT_BEAM_ORIENTATION
95001301990010009500140195001402                                                
        0.        0.        1.
95001302990010109500140395001404                                                
        1.        0.        0.
95001303990010009500140595001406                                                
        0.        0.        1.
95001304990010009500140295001405                                                
        0.        0.        1.
95001305990010109500140795001408                                                
        1.        0.        0.
95001306990010009500140995001401                                                
        0.        0.        1.
95001307990010109500141095001411                                                
        1.        0.        0.
95001308990010009500141295001409                                                
        0.        0.        1.
95001309990010109500141395001414                                                
        1.        0.        0.
95001310990010009500140695001412                                                
        0.        0.        1.
*ELEMENT_DISCRETE
95001311990020209500207095000871                      0.       0              0.
*ELEMENT_SEATBELT
95001316990020109500142095001421                      0.
95001317990020109500142295001420                      0.
95001318990020109500142395001424                      0.
95001319990020109500142595001426                      0.
95001320990020109500142795001425                      0.
95001321990020109500142895001427                      0.
95001322990020109500142995001428                      0.
95001323990020109500143095001429                      0.
95001324990020109500143195001430                      0.
95001325990020109500143295001431                      0.
95001326990020109500143395001432                      0.
95001328990020109500143695001423                      0.
95001329990020109500143795001436                      0.
95001330990020109500143895001437                      0.
95001331990020109500142695001438                      0.
95001332990020109500143995001440                      0.
95001333990020109500144195001433                      0.
95001334990020109500144095001441                      0.
95001342990020109500144995001450                      0.
95001345990020109500145295001449                      0.
$ ... 26 like lines cut
*ELEMENT_SHELL
950000019000017095000001950000029500000395000004
950000029000017095000005950000019500000495000006
950000039000017095000007950000059500000695000008
950000049000017095000009950000109500000295000001
950000059000017095000011950000079500000895000012
950000069000017095000013950000099500000195000005
950000079000017095000014950000119500001295000015
950000089000017095000016950000139500000595000007
950000099000017095000017950000149500001595000018
950000109000017095000019950000209500001095000009
950000119000017095000021950000169500000795000011
950000129000017095000022950000179500001895000023
950000139000017095000024950000199500000995000013
950000149000017095000025950000219500001195000014
950000159000017095000026950000229500002395000027
950000169000017095000028950000249500001395000016
950000179000017095000029950000259500001495000017
950000189000017095000030950000269500002795000031
950000199000017095000032950000339500002095000019
950000209000017095000034950000289500001695000021
$ ... 980 like lines cut
*ELEMENT_SHELL_BETA
950010019900200095001024950010239500194695001945
              0.              0.              0.              0.       1.1720905
950010029900200095001023950010219500194795001946
              0.              0.              0.              0.       1.1733301
950016839900200095001021950018699500194895001947
              0.              0.              0.              0.       1.1744287
950016849900200095001869950018709500194995001948
              0.              0.              0.              0.       1.1753856
950016859900200095001870950018719500195095001949
              0.              0.              0.              0.       1.1762002
950016869900200095001871950018729500195195001950
              0.              0.              0.              0.       1.1768719
950016879900200095001872950018739500195295001951
              0.              0.              0.              0.       1.1774004
950016889900200095001873950018749500195395001952
              0.              0.              0.              0.       1.1777853
950016899900200095001874950018759500195495001953
              0.              0.              0.              0.       1.1780264
950016909900200095001875950018769500195595001954
              0.              0.              0.              0.       358.82187
$ ... 604 like lines cut
*ELEMENT_SEATBELT_PRETENSIONER
         1         4  90000001                              
  90000001        0.  90000012
         2         4  90000001                              
  90000002        0.  90000012
*ELEMENT_SEATBELT_RETRACTOR
  90000001  95001401  95001351  90000002                                        
        0.        0.  90000001  90000002       15.
  90000002  95001406  95001318  90000002                                        
        0.        0.  90000001  90000002       15.
*ELEMENT_SEATBELT_SENSOR
  90000001         3         0
       0.1
  90000002         3         0
      300.
*ELEMENT_SEATBELT_SLIPRING
  95000001  95001349  95001993        0.  95001404     1.E20        0.         0
        0.                   0        0.                              
  95000002  95002007  95001332        0.  95001411     1.E20        0.         0
        0.                   0        0.                              
*PART
Beam lower
$      PID|    SECID|      MID|         |     HGID|     GRAV|   ADPOPT|     TMID|
  90000170  90000170  90000170                             0         0          
*SECTION_SHELL_TITLE
Beam lower
$    SECID|   ELFORM|     SHRF|      NIP|    PROPT|  QR/IRID|    ICOMP|
  90000170         2        1.        2.        1.         0         0
$       T1|       T2|       T3|       T4|     NLOC|    MAREA|     IDOF|   EDGSET|
        1.        1.        1.        1.                            0.          
*PART
Pulley frame
$      PID|    SECID|      MID|         |     HGID|     GRAV|         |     TMID|
  99001000  99001000  99001000                             0                    
*SECTION_BEAM_TITLE
Pulley frame
$    SECID|   ELFORM|     SHRF|  QT/IRID|      CST|         |      NSM|
  99001000         1        1.         2        0.                    
$      TS1|      TS2|      TT1|      TT2|    NSLOC|    NTLOC|
       10.       10.        5.        5.        0.        0.
*PART
Slipring guide
$      PID|    SECID|      MID|         |     HGID|     GRAV|         |     TMID|
  99001010  99001010  99001010                             0                    
*SECTION_BEAM_TITLE
Slipring guide
$    SECID|   ELFORM|     SHRF|  QT/IRID|      CST|         |      NSM|
  99001010         1        1.         2        0.                    
$      TS1|      TS2|      TT1|      TT2|    NSLOC|    NTLOC|
       10.       10.        5.        5.        0.        0.
*PART
Belt low stretch
$      PID|    SECID|      MID|         |     HGID|     GRAV|   ADPOPT|     TMID|
  99002000  99002000  99002000                             0         0          
*SECTION_SHELL_TITLE
Belt low stretch
$    SECID|   ELFORM|     SHRF|      NIP|    PROPT|  QR/IRID|    ICOMP|
  99002000         9     0.833        2.        1.         0         0
$       T1|       T2|       T3|       T4|     NLOC|    MAREA|     IDOF|   EDGSET|
        1.        1.        1.        1.                            0.          
*PART
Belt 1-D low stretch
$      PID|    SECID|      MID|         |     HGID|
  99002010  99002010  99002010                    
*SECTION_SEATBELT_TITLE
Belt 1-D low stretch
$    SECID|
  99002010
*PART
Measuring spring
$      PID|    SECID|      MID|         |     HGID|     GRAV|         |     TMID|
  99002020  99002020  99002020                             0                    
*SECTION_DISCRETE_TITLE
Measuring spring
$    SECID|      DRO|       KD|       V0|       CL|    FDefl|
  99002020         0                                        
$      CDL|      TDL|
                    
*BOUNDARY_PRESCRIBED_MOTION_RIGID_ID
  99001000                                                                      
  99001000         3         0  99001000       -1.         0                  0.
*MAT_RIGID_TITLE
Lower beam
$      MID|       RO|        E|       PR|        N|   COUPLE|        M| ALIAS_RE|
  90000170   7.85E-6      210.       0.3        0.        0.        0.
$      CMO|     CON1|     CON2|
       0.0        0.        0.
$       A1|       A2|       A3|       V1|       V2|       V3|
        0.        0.        0.        0.        0.        0.
*MAT_RIGID_TITLE
Pulley frame
$      MID|       RO|        E|       PR|        N|   COUPLE|        M| ALIAS_RE|
  99001000  4.385E-5      210.       0.3        0.        0.        0.
$      CMO|     CON1|     CON2|
       1.0        4.        7.
$       A1|       A2|       A3|       V1|       V2|       V3|
        0.        0.        0.        0.        0.        0.
*MAT_RIGID_TITLE
Slipring guide
$      MID|       RO|        E|       PR|        N|   COUPLE|        M| ALIAS_RE|
  99001010   7.85E-6      210.       0.3        0.        0.        0.
$      CMO|     CON1|     CON2|
       1.0        7.        7.
$       A1|       A2|       A3|       V1|       V2|       V3|
        0.        0.        0.        0.        0.        0.
*MAT_FABRIC_TITLE
Belt low-stretch
$      MID|       RO|       EA|       EB|         |     PRBA|     PRCA|
  99002000     2.E-7       10.                           0.3          
$      GAB|                   |      CSE|       EL|      PRL|   LRATIO|     DAMP|
                                                                                
$     AOPT|      FLC|      FAC|      ELA|     LNRC|     FORM|    FVOPT|   TSRFAC|
                                      0.       0.0       0.0                    
$         |   RGBRTH|    A0REF|       A1|       A2|       A3|       X0|       X1|
                                                                                
$       V1|       V2|       V3|       D1|       D2|       D3|     BETA|   ISREFG|
                                                                                
*MAT_SEATBELT_TITLE
Belt 1-D low stretch
$      MID|     MPUL|    LLCID|    ULCID|     LMIN|      CSE|     DAMP|        E|
  99002010     6.E-5  99002010  99002010       0.1        0.       0.1        0.
*MAT_SPRING_ELASTIC_TITLE
Measuring spring
$      MID|        K|
  99002020     1.E-6
*DEFINE_CURVE_TITLE
Retractor loading curve
  90000001         0        1.       10.        0.        0.         0         0
                  0.                  0.
                  1.                 1.1
*DEFINE_CURVE_TITLE
Retractor unloading curve
  90000002         0        1.      100.        0.        0.         0         0
                  0.                  0.
                  1.                 1.1
*DEFINE_CURVE_TITLE
Pretension curve
  90000012         0        1.        1.        0.        0.         0         0
                  0.                0.01
                300.                0.01
                350.                  0.
               1000.                  0.
*DEFINE_CURVE_TITLE
Loading curve
  99001000         0        1.        1.      350.        0.         0         0
              -1000.                  0.
                  0.                  0.
                 10.                 0.8
               1000.                 0.8
*DEFINE_CURVE_TITLE
Belt loading
  99002010         0        1.        1.        0.        0.         0         0
                  0.                  0.
                 0.1                100.
*SET_NODE_LIST
       996                                        
  95002268  95001944  95002023  95002102  95002181  95002260
*SET_NODE_LIST
       997                                        
  95002267  95001024  95001945  95002024  95002103  95002182
*DATABASE_HISTORY_DISCRETE
  95001311
$ANSA_COLOR;90000170;SECTION_SHELL;.643137276172638;.690196096897125;.7568627595
$90149;1.;
$ANSA_COLOR;99001000;SECTION_BEAM_ELFORM_1;.721568644046783;.529411792755127;0.5
$686274766922;1.;
$ANSA_COLOR;99001010;SECTION_BEAM_ELFORM_1;.815686285495758;.576470613479614;0.6
$9803923368454;1.;
$ANSA_COLOR;99002000;SECTION_SHELL;0.82745099067688;.352941185235977;.7764706015
$58685;1.;
$ANSA_COLOR;99002010;SECTION_SEATBELT;0.82745099067688;.984313726425171;.9372549
$05700684;1.;
$ANSA_COLOR;99002020;SECTION_DISCRETE;.952941179275513;.317647069692612;.9019607
$90157318;1.;
$ANSA_COLOR;90000170;MAT20 MAT_RIGID;.745098054409027;.729411780834198;.73333334
$9227905;1.;
$ANSA_COLOR;99001000;MAT20 MAT_RIGID;.792156875133514;0.18823529779911;0.1882352
$9779911;1.;
$ANSA_COLOR;99001010;MAT20 MAT_RIGID;.772549033164978;.733333349227905;.97647058
$9637756;1.;
$ANSA_COLOR;99002000;MAT34 MAT_FABRIC;.541176497936249;.317647069692612;.0588235
$29630899;1.;
$ANSA_COLOR;99002010;MAT_B01 MAT_SEATBELT;.541176497936249;.423529416322708;.156
$862750649452;1.;
$ANSA_COLOR;99002020;MAT200 MAT_SPRING_ELASTIC;.709803938865662;0.91372549533844
$;.137254908680916;1.;
$ANSA_SEATBELT;ID;1;NAME;Default Seatbelt Entity;COLOR;243;254;9;100;DISABLE_P2W
$;0;PROP_CONTAINS;SECTION_SHELL(203002,406001,456001,506001,556001,656001);PROP_
$NAMES;6;AB-Soft-Skin-L;AB-Soft-Skin-R;PE-Soft-Skin-R;TX-Skin-R;TX-Skin-L;NE_Ski
$n;PROP_IDS;6;506001;556001;656001;456001;406001;203002;CONTACT_NAME;;CREATE_CNC
$T;0;AUTO_RECREATE;0;USE_REAL_THICKNESS;0;THICKNESS_FACTOR;1.;APPLY_CONSTANT_WID
$TH;1;SMOOTH_BELT;0;UNFOLD_BELT;0;CHECK_QUALITY;1;BELT_TYPE;0;KEEP_ID_RANGE;1;N_
$RBODY_CONS_SET;0;MAT_ORIENT;0;NUM_OF_COMPONENTS;3;COMP_NAME;Component_1;POINTS_
$NAME;SBPoint;INDEX;0;GENTYPE;1;FLIPPED_ENTRY;0;FLIPPED_EXIT;0;LENGTH_1;100.;LEN
$GTH_2;100.;EL_LENGTH;12.5;EL_OFFSET;5.;NUM_OF_SHELLS;4;EXTEND_SBLTS;0;CREATE_TR
$IAS_AT_END;0;CREATE_TRIAS_AT_START;0;IS_FROZEN;0;IS_MEMBRANE;0;STATUS_ERROR;0;P
$SBLT_NAME;Belt 1-D low stretch;PSBLT_ID;99002010;SBLT_POINTS;2;0;SBPoint_1_0;84
$8.1164;164.1221;-200.;1;SBPoint_2_0;848.1164;164.1221;0.;ENTRY_VEC;0.;0.;0.;EXI
$T_VEC;0.;0.;0.;SP_ENTITY;2;EP_ENTITY;1;START_PART_TYPE;0;END_PART_TYPE;0;MAIN_P
$ART_TYPE_v14;0;CONTAINS;ELEMENT_SEATBELT(95001316-95001317,95001342,95001345-95
$001357) ELEMENT_SEATBELT_SLIPRING(95000001) NODE(95001418,95001420-95001422,950
$01449-95001450,95001452-95001462);SBLT_NODE_IDS;2;95001401;95001404;SBLT_POINTS
$_TYPES;2;0;0;SBLT_POINTS_ENTITY_TYPE;2;0;0;STIFFENER_CREATE;0;START_ANCHOR_ELEM
$_NUM;1073741824;COMP_NAME;Component_2;POINTS_NAME;SBPoint;INDEX;1;GENTYPE;0;FLI
$PPED_ENTRY;0;FLIPPED_EXIT;0;LENGTH_1;100.;LENGTH_2;100.;EL_LENGTH;12.5;EL_OFFSE
$T;5.;NUM_OF_SHELLS;4;EXTEND_SBLTS;0;CREATE_TRIAS_AT_END;0;CREATE_TRIAS_AT_START
$;0;IS_FROZEN;0;IS_MEMBRANE;0;STATUS_ERROR;0;PSHELL_NAME;Belt low stretch;PSHELL
$_ID;99002000;PSBLT_NAME;Belt 1-D low stretch;PSBLT_ID;99002010;SBLT_POINTS;3;0;
$SBPoint_2_0;848.1164;164.1221;0.;1;SBPoint_2_1;410.159235593994;406.5;365.78388
$8340547;2;SBPoint_3_0;192.6;553.6;0.;ENTRY_VEC;0.;0.;0.;EXIT_VEC;0.;0.;0.;SP_EN
$TITY;1;EP_ENTITY;1;START_PART_TYPE;0;END_PART_TYPE;0;MAIN_PART_TYPE_v14;0;CONTA
$INS;CONSTRAINED_NODAL_RIGID_BODY(95002000,95002008) ELEMENT_SHELL(95001001-9500
$1002,95001683-95001992) ELEMENT_SEATBELT(95001993-95001999,95002001-95002007) E
$LEMENT_SEATBELT_SLIPRING(95000002) NODE(95001021,95001023-95001024,95001869-950
$02274);SBLT_PATH;95;1;848.1164;164.1221;0.;-.61169755193579;.227423181817934;.7
$57697037956179;-.21800340869446;-.96295287472832;.158733345110769;-.21800340869
$446;-.96295287472832;.158733345110769;0.;0.;0.;0;1;0;2;840.470180600803;166.964
$889772724;9.47121297445224;-.60941749226052;0.2262578146621;.759557053378034;-.
$21037998244581;-0.9647269247834;.158247349374542;-.21037998244581;-0.9647269247
$834;.158247349374542;0.;0.;0.;0;1;0;3;832.823961201605;169.807679545448;18.9424
$259489045;-.60713743258524;.225092447506266;.761417068799889;-0.2027381236113;-
$.96644285537936;.157751261550445;-0.2027381236113;-.96644285537936;.15775126155
$0445;0.;0.;0.;0;0;0;4;825.177741802408;172.650469318172;28.4136389233567;-.6048
$5737290997;.223927080350432;.763277084221745;-.19507850597168;-.96810038372141;
$0.15724510658942;-.19507850597168;-.96810038372141;0.15724510658942;0.;0.;0.;0;
$0;0;5;817.53152240321;175.493259090897;37.884851897809;-.60257731323469;.222761
$713194598;0.7651370996436;-.18740180846573;-.96969923714431;.156728911390054;-.
$18740180846573;-.96969923714431;.156728911390054;0.;0.;0.;0;0;0;6;809.885303004
$013;178.336048863621;47.3560648722612;-.60029725355942;.221596346038764;.766997
$115065455;-0.179708714996;-.97123915323091;.156202704796669;-0.179708714996;-.9
$7123915323091;.156202704796669;0.;0.;0.;0;0;0;7;802.239083604816;181.1788386363
$45;56.8272778467135;-.59801719388415;0.22043097888293;0.76885713048731;-.171999
$91423153;-.97271987992624;.155666517596491;-.17199991423153;-.97271987992624;.1
$55666517596491;0.;0.;0.;0;0;0;8;794.592864205618;184.021628409069;66.2984908211
$657;-.59573713420887;.219265611727096;.770717145909165;-.16427609940756;-.97414
$117564733;.155120382515903;-.16427609940756;-.97414117564733;.155120382515903;0
$.;0.;0.;0;0;0;9;786.946644806421;186.864418181793;75.7697037956179;-0.593457074
$5336;.218100244571262;0.77257716133102;-.15653796812238;-.97550280938834;.15456
$4334215776;-.15653796812238;-.97550280938834;.154564334215776;0.;0.;0.;0;0;0;10
$;779.300425407223;189.707207954517;85.2409167700702;-.59117701485832;.216934877
$415428;.774437176752875;-.14878622213152;-.97680456082128;.153998409285882;-.14
$878622213152;-.97680456082128;.153998409285882;0.;0.;0.;0;0;0;11;771.6542060080
$26;192.549997727242;94.7121297445224;-.58889695518305;.215769510259594;0.776297
$19217473;-.14102156713935;-.97804622039184;.153422646238383;-.14102156713935;-.
$97804622039184;.153422646238383;0.;0.;0.;0;0;0;12;764.007986608829;195.39278749
$9966;104.183342718975;-.58661689550777;0.21460414310376;.778157207596585;-.1332
$4471258816;-.97922758941067;.152837085500401;-.13324471258816;-.97922758941067;
$.152837085500401;0.;0.;0.;0;0;0;13;756.361767209631;198.23557727269;113.6545556
$93427;-0.5843368358325;.213438775947926;0.78001722301844;-.12545637144497;-.980
$34848013963;.152241769405674;-.12545637144497;-.98034848013963;.152241769405674
$;0.;0.;0.;0;0;0;14;748.715547810434;201.078367045414;123.125768667879;-.5820567
$7615723;.212273408792092;.781877238440296;-.11765725998608;-.98140871587326;.15
$1636742185292;-.11765725998608;-.98140871587326;.151636742185292;0.;0.;0.;0;0;0
$;15;741.069328411236;203.921156818138;132.596981642331;-.57977671648195;.211108
$041636258;.783737253862151;-.10984809757963;-.98240813101519;.151022049957526;-
$.10984809757963;-.98240813101519;.151022049957526;0.;0.;0.;0;0;0;16;733.4231090
$12039;206.763946590863;142.068194616784;-.57749665680668;.209942674480424;.7855
$97269284006;-.10202960646616;-.98334657114959;.150397740716745;-.10202960646616
$;-.98334657114959;.150397740716745;0.;0.;0.;0;0;0;17;725.776889612842;209.60673
$6363587;151.539407591236;-0.5752165971314;.208777307324591;.787457284705861;-.0
$9420251153743;-.98422389310743;.149763864321436;-.09420251153743;-.984223893107
$43;.149763864321436;0.;0.;0.;0;0;0;18;718.130670213644;212.449526136311;161.010
$620565688;-.57293653745613;.207611940168757;.789317300127716;-.08636754011357;-
$.98503996502765;0.14912047248132;-.08636754011357;-.98503996502765;0.1491204724
$8132;0.;0.;0.;0;0;0;19;710.484450814447;215.292315909035;170.48183354014;-.5706
$5647778086;.206446573012923;.791177315549571;-.07852542171872;-.98579466641309;
$.148467618743591;-.07852542171872;-.98579466641309;.148467618743591;0.;0.;0.;0;
$0;0;20;702.83823141525;218.135105681759;179.953046514593;-.56837641810558;.2052
$81205857089;.793037330971426;-.07067688785536;-0.9864878881812;.147805358478257
$;-.07067688785536;-0.9864878881812;.147805358478257;0.;0.;0.;0;0;0;21;695.19201
$2016052;220.977895454483;189.424259489045;-.56609635843031;.204115838701255;.79
$4897346393281;-.06282267177734;-.98711953270938;.147133748862619;-.062822671777
$34;-.98711953270938;.147133748862619;0.;0.;0.;0;0;0;22;687.545792616855;223.820
$685227208;198.895472463497;-.56381629875503;.202950471545421;.796757361815136;-
$.05496350826193;-.98768951387514;.146452848864882;-.05496350826193;-.9876895138
$7514;.146452848864882;0.;0.;0.;0;0;0;23;679.899573217657;226.663474999932;208.3
$66685437949;-.56153623907976;.201785104389587;.798617377236991;-.04710013338091
$;-.98819775709069;.145762719226906;-.04710013338091;-.98819775709069;.145762719
$226906;0.;0.;0.;0;0;0;24;672.25335381846;229.506264772656;217.837898412402;-.55
$925617940449;.200619737233753;.800477392658847;-0.0392332842709;-.9886441993323
$7;.145063422446121;-0.0392332842709;-.98864419933237;.145063422446121;0.;0.;0.;
$0;0;0;25;664.607134419263;232.34905454538;227.309111386854;-.55697611972921;.19
$9454370077919;.802337408080702;-.03136369890308;-.98902878916443;.1443550227565
$98;-.03136369890308;-.98902878916443;.144355022756598;0.;0.;0.;0;0;0;26;656.960
$915020065;235.191844318104;236.780324361306;-.55469606005394;.198289002922085;.
$804197423502557;-.02349211585244;-0.9893514867576;.143637586109311;-.0234921158
$5244;-0.9893514867576;.143637586109311;0.;0.;0.;0;0;0;27;651.639894123652;242.7
$938485954;247.473135020332;-0.0783728798146;-.89288144330177;.443419011677355;-
$0.0535970476679;-.99060856649491;0.12578562902094;-0.0535970476679;-.9906085664
$9491;0.12578562902094;0.;0.;0.;0;1;0;28;648.879076072697;238.397694393959;259.6
$53005401561;-.36092499832948;0.19962908639498;0.91097825080842;-.06842948163647
$;-.97996156977953;.187063432552154;-.06842948163647;-.97996156977953;.187063432
$552154;0.;0.;0.;0;1;0;29;644.440913522796;241.831746154782;270.946124699963;-.4
$8354998991469;.335714980002906;.808377918708293;-.05428640736389;-.948902118183
$67;.310866138525992;-.05428640736389;-.94890211818367;.310866138525992;0.;0.;0.
$;0;1;0;30;638.401712693611;246.225513657024;281.042821346471;-.54588761645845;.
$403145653057809;.734493221628291;-.06489014274008;-0.9062847196124;.41765688833
$3298;-.06489014274008;-0.9062847196124;.417656888333298;0.;0.;0.;0;1;0;31;631.5
$70504101244;251.306971366539;290.255839951773;-.58925966220592;.433094371469062
$;0.6820574139314;-.08509504494195;-.85634783354956;.509339985963498;-.085095044
$94195;-.85634783354956;.509339985963498;0.;0.;0.;0;1;0;32;624.235294305149;257.
$0334868177;298.595568114937;-.62570079384595;.469997576848551;.622575934595157;
$-.09173126043713;-.85541432331166;0.5097565216178;-.09173126043713;-.8554143233
$1166;0.5097565216178;0.;0.;0.;0;1;0;33;616.420899875685;262.973004812202;306.33
$9816036524;-0.6456954693907;.481184855582261;.592906818620437;-.09634119656164;
$-.81897580085392;.565682783422604;-.09634119656164;-.81897580085392;.5656827834
$22604;0.;0.;0.;0;1;0;34;608.348050837475;268.940254197097;313.788670904091;-.64
$769054634528;.484900199198153;.587642111957656;-.03413376204387;-.7884932242544
$2;.614095531325219;-.03413376204387;-.78849322425442;.614095531325219;0.;0.;0.;
$0;1;0;35;600.279531114585;274.988612157113;321.175042236532;-.64968562329987;.4
$88615542814045;.582377405294874;.014973932284882;-.76611867992864;.642524668488
$556;.014973932284882;-.76611867992864;.642524668488556;0.;0.;0.;0;1;0;36;592.15
$8161577777;281.022878577383;328.518910672597;-.64336762685867;.507863027048455;
$.572401378962038;.000656585098139;-.75581262070575;.654787638305666;.0006565850
$98139;-.75581262070575;.654787638305666;0.;0.;0.;0;1;0;37;584.037010612634;287.
$223438733815;335.718175196781;-.63704963041747;.527110511282864;.56242535262920
$3;-.00131161659452;-.73346642318687;.679724418951807;-.00131161659452;-.7334664
$2318687;.679724418951807;0.;0.;0.;0;0;0;38;576.072853246206;293.587783258696;34
$2.971020907696;-.65195848288899;.522947376997001;.548678032269263;-.00328027263
$015;-.71027187209108;.703919816120916;-.00328027263015;-.71027187209108;.703919
$816120916;0.;0.;0.;0;1;0;39;568.157605835095;300.293906600622;349.912624833523;
$-0.6668673353605;.518784242711139;.534930711909323;.263420967557299;-.603461882
$17272;0.75262417620997;.263420967557299;-.60346188217272;0.75262417620997;0.;0.
$;0.;0;1;0;40;559.846326180513;306.74581940075;356.684769556608;-.68507599638992
$;.535192042345352;.491702008270174;.264521070932835;-.51936910270265;.812578819
$678675;.264521070932835;-.51936910270265;.812578819678675;0.;0.;0.;0;1;0;41;551
$.462540505868;313.332155347375;363.223396663811;-.70328465741935;.5515998419795
$65;.448473304631026;0.27775015770473;-.45773204896341;.844592340272367;0.277750
$15770473;-.45773204896341;.844592340272367;0.;0.;0.;0;1;0;42;542.735007110713;3
$20.180534255527;368.974056880331;-.73002673923059;0.56923202292519;.37820082507
$1613;.350675386340526;-0.3437911755017;.871111015348837;.350675386340526;-0.343
$7911755017;.871111015348837;0.;0.;0.;0;1;0;43;533.726701815324;327.26793472643;
$374.105399654664;-0.7519951001042;0.57723364696571;.318283971054047;.3080013617
$84124;-.17101146751495;.935890078544221;.308001361784124;-.17101146751495;.9358
$90078544221;0.;0.;0.;0;1;0;44;524.240953354034;334.527852156518;377.94362333316
$7;-.78673658124168;.592391239788835;.173545875080899;.237018786671555;-.1379109
$1263122;.961666613199174;.237018786671555;-.13791091263122;.961666613199174;0.;
$0.;0.;0;1;0;45;514.411601744555;342.053384890637;380.176796394772;-0.7976427810
$924;.592665167290202;.111865961096537;.219900994599142;.092689618523242;.971108
$741178002;.219900994599142;.092689618523242;.971108741178002;0.;0.;0.;0;1;0;46;
$504.373738911935;349.453754220748;381.510452608147;-.82366300407484;0.562316183
$80409;-.07334688234965;.115140221450685;.090752835296908;0.98919495160957;.1151
$40221450685;.090752835296908;0.98919495160957;0.;0.;0.;0;1;0;47;494.08293046162
$8;356.765310729428;381.360573887588;-.82342587277205;.562188323644658;-.0763643
$8690918;.047086338706903;0.2532741842564;.966247931069678;.047086338706903;0.25
$ ... 4 like lines cut
$;-.82295161016648;.561932603325794;-.08239939602824;-.00788357937794;.312760923
$553048;0.94979916502092;-.00788357937794;.312760923553048;0.94979916502092;0.;0
$.;0.;0;1;0;50;463.13486302584;377.525640760738;377.364356904438;-.8227144788636
$9;.561804743166362;-.08541690058777;-.01350014089373;0.2901599093104;.956882946
$459404;-.01350014089373;0.2901599093104;.956882946459404;0.;0.;0.;0;0;0;51;452.
$839075474905;384.55459305829;376.447520875068;-0.8224773475609;0.56167688300693
$;-0.0884344051473;-0.0191394859054;.267261411600441;.963433971763824;-0.0191394
$859054;.267261411600441;.963433971763824;0.;0.;0.;0;0;0;52;442.543287923969;391
$.583545355841;375.530684845697;-.82224021625811;.561549022847497;-.091451909706
$82;-.02476736522924;.244202808445087;.969407842946989;-.02476736522924;.2442028
$08445087;.969407842946989;0.;0.;0.;0;0;0;53;432.247500373033;398.612497653392;3
$74.613848816327;-.82200308495533;.561421162688065;-.09446941426635;-.0303804074
$3156;.220997913315973;.974800981305558;-.03038040743156;.220997913315973;.97480
$0981305558;0.;0.;0.;0;0;0;54;421.951712822098;405.641449950943;373.697012786956
$;-.82176595365254;.561293302528633;-.09748691882588;-.03597524996699;.197660627
$322309;.979610156029614;-.03597524996699;.197660627322309;.979610156029614;0.;0
$.;0.;0;0;0;55;411.655925271162;412.670402248494;372.780176757586;-.821528822349
$75;.561165442369201;-.10050442338541;-.04154854119284;.174204930883287;.9838324
$86138111;-.04154854119284;.174204930883287;.983832486138111;0.;0.;0.;0;0;0;56;4
$01.360137720227;419.699354546045;371.863340728215;-.82129169104696;.56103758220
$9769;-.10352192794494;-.04709694237694;.150644875352985;.987465442204752;-.0470
$9694237694;.150644875352985;.987465442204752;0.;0.;0.;0;0;0;57;391.086976316746
$;426.729255177063;370.701375109022;-.82704248535843;.552408603634557;-.10414154
$810965;-.05261814273466;0.12699021498773;.990507353002755;-.05261814273466;0.12
$699021498773;.990507353002755;0.;0.;0.;0;1;0;58;380.755575379672;433.6184698547
$28;369.275396677287;-.80870508851324;.547409850460763;-0.2152638739578;-0.04858
$47001419;.130941505529545;.990198893678325;-0.0485847001419;.130941505529545;.9
$90198893678325;0.;0.;0.;0;1;0;59;370.632133863751;440.483151564649;366.68781282
$278;-.79898249250638;.540225252350176;-.26005935963097;-.13119939084216;.201841
$480678776;.970590921305184;-.13119939084216;.201841480678776;.970590921305184;0
$.;0.;0.;0;1;0;60;360.534811364867;447.30781398767;363.9121103575;-.789259896499
$51;0.53304065423959;-.30485484530414;-.13097112767729;.190988340095464;.9728155
$10599271;-.13097112767729;.190988340095464;.972815510599271;0.;0.;0.;0;1;0;61;3
$50.466260335104;454.131600262974;360.734972403387;-.77402728370882;0.5278481367
$0461;-0.3496542701753;-.29024907500496;.233401402019963;.928051324008473;-.2902
$4907500496;.233401402019963;.928051324008473;0.;0.;0.;0;1;0;62;340.871230659709
$;460.670826579691;356.060790909882;-.74654782763465;.505223873977316;-.43291474
$705458;-.32088344054247;.272566577337147;0.90705086875232;-.32088344054247;.272
$566577337147;0.90705086875232;0.;0.;0.;0;1;0;63;331.551601873997;466.9656303715
$89;350.56753496104;-.71062727740204;.498841818997129;-.49615089663508;-.3677955
$2884011;.279720528065674;.886838697364907;-.36779552884011;.279720528065674;.88
$6838697364907;0.;0.;0.;0;1;0;64;322.543629843657;473.317954939914;344.606283592
$108;-.69909623985519;.464069048133902;-.53821980543972;-.39618954722408;0.33719
$159046111;0.8540115186534;-.39618954722408;0.33719159046111;0.8540115186534;0.;
$0.;0.;0;1;0;65;313.878902592824;479.367015468007;337.924055664284;-.68756520230
$834;.429296277270676;-.58028871424437;-0.4748762648662;.385254415614904;.791246
$844111209;-0.4748762648662;.385254415614904;.791246844111209;0.;0.;0.;0;1;0;66;
$305.016872801714;485.58565465453;331.687493523097;-.67603416476148;.39452350640
$7449;-.62235762304901;-.48900239152473;0.43195725620351;.757818969079179;-.4890
$0239152473;0.43195725620351;.757818969079179;0.;0.;0.;0;0;0;67;295.593785320031
$;491.444368877203;325.305503561198;-.66348026602204;.395414992963215;-.63468132
$358359;-.50170041912125;.478236560216131;.720823474871762;-.50170041912125;.478
$236560216131;.720823474871762;0.;0.;0.;0;1;0;68;287.536608352861;496.1253111915
$99;317.063076275455;-.65092636728259;0.39630647951898;-.64700502411816;-.448791
$94901019;.524047724506673;.723850653756019;-.44879194901019;.524047724506673;.7
$23850653756019;0.;0.;0.;0;1;0;69;279.575859177015;500.410712151511;308.42134577
$1835;-.63837246854315;.397197966074746;-.65932872465274;-.75302826722863;.25533
$2871108685;.606426874145628;-.75302826722863;.255332871108685;.606426874145628;
$0.;0.;0.;0;1;0;70;271.436113089409;505.415647734653;300.350871934618;-.57359657
$991997;.353219636210097;-.73906890889803;-.70210248568724;.197815898969643;.684
$047490826937;-.70210248568724;.197815898969643;.684047490826937;0.;0.;0.;0;1;0;
$71;264.325163114679;509.8191754556;291.015981082546;-.44628224895414;.270506281
$565958;-.85302901820617;-.76992372957024;.236725505116828;.592603143656732;-.76
$992372957024;.236725505116828;.592603143656732;0.;0.;0.;0;1;0;72;257.8391005869
$23;513.496784728182;280.755927544235;-.35105337260299;.249353983380425;-0.90254
$31405514;-.85910685649985;.277634687824764;.429946960951447;-.85910685649985;.2
$77634687824764;.429946960951447;0.;0.;0.;0;1;0;73;254.253040041972;516.38963462
$8326;269.035474259444;-.22245313595149;.134088331895548;-0.9656784773178;-.8652
$8968843547;.382270072532661;.324258148291029;-.86528968843547;.382270072532661;
$.324258148291029;0.;0.;0.;0;1;0;74;251.733125148986;517.95625833242;256.6993987
$68499;-.22244131669762;.134083787417194;-.96568182905887;-.87522234949907;.3556
$00142407822;.327924347459703;-.87522234949907;.355600142407822;.327924347459703
$;0.;0.;0.;0;1;0;75;248.916967050066;519.653757179641;244.474337282093;-.2224294
$9744375;0.13407924293884;-.96568518079994;-.87618957777639;.354596260420624;.32
$6425054019672;-.87618957777639;.354596260420624;.326425054019672;0.;0.;0.;0;0;0
$;76;246.100808951147;521.351256026861;232.249275795687;-.22241767818988;.134074
$698460487;-.96568853254102;-.87715313377636;.353590892252982;.324924392470087;-
$.87715313377636;.353590892252982;.324924392470087;0.;0.;0.;0;0;0;77;243.2846508
$52227;523.048754874082;220.024214309281;-.22240585893601;.134070153982133;-.965
$69188428209;-.87811301346053;.352584042118585;.323422369100507;-.87811301346053
$;.352584042118585;.323422369100507;0.;0.;0.;0;0;0;78;240.468492753308;524.74625
$3721302;207.799152822875;-.22239403968214;0.13406560950378;-.96569523602316;-.8
$7906921280587;.351575714237335;.321918990206197;-.87906921280587;.3515757142373
$35;.321918990206197;0.;0.;0.;0;0;0;79;237.652334654388;526.443752568523;195.574
$091336469;-.22238222042827;.134061065025426;-.96569858776424;-.88002172780476;.
$350565912835325;.320414262088104;-.88002172780476;.350565912835325;.32041426208
$8104;0.;0.;0.;0;0;0;80;234.836176555469;528.141251415743;183.349029850063;-0.22
$23704011744;.134056520547073;-.96570193950531;-.88097055446503;.349554642144824
$;.318908191052831;-.88097055446503;.349554642144824;.318908191052831;0.;0.;0.;0
$;0;0;81;232.020018456549;529.838750262964;171.123968363657;-.22235858192053;.13
$4051976068719;-.96570529124639;-.88191568880996;.348541906404263;.3174007834126
$07;-.88191568880996;.348541906404263;.317400783412607;0.;0.;0.;0;0;0;82;229.203
$860357629;531.536249110185;158.898906877251;-.22234676266666;.134047431590366;-
$.96570864298746;-.88285712687832;.347527709858207;.315892045485266;-.8828571268
$7832;.347527709858207;.315892045485266;0.;0.;0.;0;0;0;83;226.38770225871;533.23
$3747957405;146.673845390846;-.22233494341279;.134042887112012;-.96571199472853;
$-.88379486472436;.346512056757349;.314381983594216;-.88379486472436;.3465120567
$57349;.314381983594216;0.;0.;0.;0;0;0;84;223.57154415979;534.931246804626;134.4
$4878390444;-.22232312415892;.134038342633659;-.96571534646961;-.88472889841785;
$.345494951358484;.312870604068412;-.88472889841785;.345494951358484;.3128706040
$68412;0.;0.;0.;0;0;0;85;220.755386060871;536.628745651846;122.223722418034;-.22
$231130490505;.134033798155305;-.96571869821068;-.88565922404407;.34447639792449
$4;.311357913242335;-.88565922404407;.344476397924494;.311357913242335;0.;0.;0.;
$0;0;0;86;217.939227961951;538.326244499067;109.998660931628;-.22229948565118;.1
$34029253676951;-.96572204995175;-.88658583770385;0.34345640072433;0.30984391745
$596;-.88658583770385;0.34345640072433;0.30984391745596;0.;0.;0.;0;0;0;87;215.12
$3069863032;540.023743346287;97.7735994452218;-.22228766639731;.134024709198598;
$-.96572540169283;-.88750873551357;.342434964032996;.308328623054731;-.887508735
$51357;.342434964032996;.308328623054731;0.;0.;0.;0;0;0;88;212.306911764112;541.
$721242193508;85.5485379588159;-.22227584714343;.134020164720244;-0.965728753433
$9;-0.8884279136052;.341412092131527;.306812036389536;-0.8884279136052;.34141209
$2131527;.306812036389536;0.;0.;0.;0;0;0;89;209.490753665193;543.418741040728;73
$.3234764724099;-.22226402788956;.134015620241891;-.96573210517498;-.88934336812
$628;.340387789306973;.305294163816678;-.88934336812628;.340387789306973;.305294
$163816678;0.;0.;0.;0;0;0;90;206.674595566273;545.116239887949;61.098414986004;-
$.22225220863569;.134011075763537;-.96573545691605;-.89025509523996;.33936205985
$2383;0.30377501169785;-.89025509523996;.339362059852383;0.30377501169785;0.;0.;
$0.;0;0;0;91;203.858437467353;546.813738735169;48.8733534995981;-.22224038938182
$;.134006531285184;-.96573880865712;-.89116309112504;.338334908066784;.302254586
$400109;-.89116309112504;.338334908066784;.302254586400109;0.;0.;0.;0;0;0;92;201
$.042279368434;548.51123758239;36.6482920131921;-.22222857012795;0.1340019868068
$3;-0.9657421603982;-.89206735197592;.337306338255165;.300732894295845;-.8920673
$5197592;.337306338255165;.300732894295845;0.;0.;0.;0;0;0;93;198.226121269514;55
$0.20873642961;24.4232305267862;-.22221675087408;.133997442328477;-.965745512139
$27;-.89296787400268;.336276354728458;.299209941762761;-.89296787400268;.3362763
$54728458;.299209941762761;0.;0.;0.;0;0;0;94;195.409963170595;551.906235276831;1
$2.1981690403803;-.22220493162021;.133992897850123;-.96574886388035;-.8938646534
$3105;0.33524496180352;.297685735183839;-.89386465343105;0.33524496180352;.29768
$5735183839;0.;0.;0.;0;0;0;95;192.6;553.6;0.;-.22219311236634;0.13398835337177;-
$.96575221562142;-.89475572614043;.334214437270369;0.29616363797564;-.8947557261
$4043;.334214437270369;0.29616363797564;0.;0.;0.;0;1;0;SBLT_NODE_IDS;3;95001404;
$4110808;95001411;SBLT_POINTS_TYPES;3;0;0;0;SBLT_POINTS_ENTITY_TYPE;3;0;0;0;STIF
$FENER_CREATE;0;COMP_NAME;Component_3;POINTS_NAME;SBPoint;INDEX;2;GENTYPE;1;FLIP
$PED_ENTRY;0;FLIPPED_EXIT;0;LENGTH_1;100.;LENGTH_2;100.;EL_LENGTH;12.5;EL_OFFSET
$;5.;NUM_OF_SHELLS;4;EXTEND_SBLTS;0;CREATE_TRIAS_AT_END;0;CREATE_TRIAS_AT_START;
$0;IS_FROZEN;0;IS_MEMBRANE;0;STATUS_ERROR;0;PSBLT_NAME;Belt 1-D low stretch;PSBL
$T_ID;99002010;SBLT_POINTS;2;0;SBPoint_3_0;192.6;553.6;0.;1;SBPoint_3_1;192.6;55
$3.6;-200.;ENTRY_VEC;0.;0.;0.;EXIT_VEC;0.;0.;0.;SP_ENTITY;1;EP_ENTITY;0;START_PA
$RT_TYPE;0;END_PART_TYPE;0;MAIN_PART_TYPE_v14;0;CONTAINS;ELEMENT_SEATBELT(950013
$18-95001326,95001328-95001334) NODE(95001423-95001433,95001436-95001438,9500144
$0-95001441);SBLT_NODE_IDS;2;95001411;95001406;SBLT_POINTS_TYPES;2;0;0;SBLT_POIN
$TS_ENTITY_TYPE;2;0;0;STIFFENER_CREATE;0;
$ANSA_NAME_COMMENT;90000001;ELEMENT_SEATBELT_SENSOR;Time_Sensor;;NO;NO;NO;
$ANSA_NAME_COMMENT;90000002;ELEMENT_SEATBELT_SENSOR;Time_Sensor lock;;NO;NO;NO;
$ANSA_NAME_COMMENT;95001401;NODE;SBPoint_1_0;;NO;NO;NO;
$ANSA_NAME_COMMENT;95001404;NODE;SBPoint_2_0;;NO;NO;NO;
$ANSA_NAME_COMMENT;95001406;NODE;SBPoint_3_1;;NO;NO;NO;
$ANSA_NAME_COMMENT;95001411;NODE;SBPoint_3_0;;NO;NO;NO;
$ANSA_NAME_COMMENT;1;SEATBELT;Default Seatbelt Entity;;NO;NO;NO;
$ANSA_USER_ATTRIBUTES;SECTION_SHELL;User/cad_material;TEXT;RW;YES;;;
$ANSA_USER_ATTRIBUTES;SECTION_SHELL;User/cad_thickness;TEXT;RW;YES;;;
$ANSA_PART;PART;ID;1276;NAME;Default Seatbelt Part;BELONGS_HERE;YES;STUDY_VERSIO
$N;0;PID_OFFSET;0;COLOR;221;39;134;0;IS_COLOR_ACTIVE;1;PART_TYPE;Undefined;ATTRI
$BUTES;2;DM/File Type;ANSA;DM/Status;WIP;CONTAINS;CONSTRAINED_NODAL_RIGID_BODY;9
$5002000,95002008;ELEMENT_SEATBELT_SLIPRING;95000001-95000002;SEATBELT;1;SECTION
$_DISCRETE;99002020;SECTION_SEATBELT;99002010;SECTION_SHELL;99002000;
$ANSA_PART;PART;ID;2201;NAME;Untitled;STUDY_VERSION;0;PID_OFFSET;0;COLOR;207;32;
$155;0;IS_COLOR_ACTIVE;1;PART_TYPE;Undefined;ATTRIBUTES;2;DM/File Type;ANSA;DM/S
$tatus;WIP;CONTAINS;ELEMENT_SEATBELT_PRETENSIONER;1-2;ELEMENT_SEATBELT_RETRACTOR
$;90000001-90000002;ELEMENT_SEATBELT_SENSOR;90000001-90000002;SECTION_BEAM_ELFOR
$M_1;99001000,99001010;SECTION_SHELL;90000170;
*END
