*KEYWORD
*NODE
     693           192.6        164.1221           -200.       0       0
95000001        264.4467       469.45862            535.       0       0
95000002        256.1563       475.05054            535.       0       0
95000003        256.1563       475.05054            525.       0       0
95000004        264.4467       469.45862            525.       0       0
95000005       272.73706        463.8667            535.       0       0
95000006       272.73706        463.8667            525.       0       0
95000007       281.02744       458.27475            535.       0       0
95000008       281.02744       458.27475            525.       0       0
95000009        264.4467       469.45862            545.       0       0
95000010        256.1563       475.05054            545.       0       0
95000011        289.3178       452.68283            535.       0       0
95000012        289.3178       452.68283            525.       0       0
95000013       272.73706        463.8667            545.       0       0
95000014        297.6082        447.0909            535.       0       0
95000015        297.6082        447.0909            525.       0       0
95000016       281.02744       458.27475            545.       0       0
95000017       305.89856       441.49896            535.       0       0
95000018       305.89856       441.49896            525.       0       0
95000019        264.4467       469.45862            555.       0       0
$ ... 2521 like lines cut
*ELEMENT_BEAM_ORIENTATION
95001301990010009500140195001402                                                
        0.        0.        1.
95001302990010109500140395001404                                                
        1.        0.        0.
95001303990010009500140595001406                                                
        0.        0.        1.
95001304990010009500140295001405                                                
        0.        0.        1.
95001305990010109500140795001408                                                
        1.        0.        0.
95001306990010009500140995001401                                                
        0.        0.        1.
95001307990010109500141095001411                                                
        1.        0.        0.
95001308990010009500141295001409                                                
        0.        0.        1.
95001309990010109500141395001414                                                
        1.        0.        0.
95001310990010009500140695001412                                                
        0.        0.        1.
*ELEMENT_DISCRETE
95001311990020209500188195000871                      0.       0              0.
*ELEMENT_SHELL
950000009900200095001021950010229500102395001024
950000019000017095000001950000029500000395000004
950000029000017095000005950000019500000495000006
950000039000017095000007950000059500000695000008
950000049000017095000009950000109500000295000001
950000059000017095000011950000079500000895000012
950000069000017095000013950000099500000195000005
950000079000017095000014950000119500001295000015
950000089000017095000016950000139500000595000007
950000099000017095000017950000149500001595000018
950000109000017095000019950000209500001095000009
950000119000017095000021950000169500000795000011
950000129000017095000022950000179500001895000023
950000139000017095000024950000199500000995000013
950000149000017095000025950000219500001195000014
950000159000017095000026950000229500002395000027
950000169000017095000028950000249500001395000016
950000179000017095000029950000259500001495000017
950000189000017095000030950000269500002795000031
950000199000017095000032950000339500002095000019
$ ... 2452 like lines cut
*CONSTRAINED_RIGID_BODIES
  99001000  99002000         0
*PART
Beam lower
  90000170  90000170  90000170                             0         0          
*SECTION_SHELL_TITLE
Beam lower
  90000170         2        1.        2.        1.         0         0
        1.        1.        1.        1.                            0.          
*PART
Pulley frame
  99001000  99001000  99001000                             0                    
*SECTION_BEAM_TITLE
Pulley frame
  99001000         1        1.         2        0.                    
       10.       10.        5.        5.        0.        0.
*PART
Slipring guide
  99001010  99001010  99001010                             0                    
*SECTION_BEAM_TITLE
Slipring guide
  99001010         1        1.         2        0.                    
       10.       10.        5.        5.        0.        0.
*PART
Hub
  99002000  99002000  99002000                             0         0          
*SECTION_SHELL_TITLE
Hub
  99002000         2     0.833        2.        1.         0         0
        1.        1.        1.        1.                            0.          
*PART
Measuring spring
  99002020  99002020  99002020                             0                    
*SECTION_DISCRETE_TITLE
Measuring spring
  99002020         0                                        
                    
*BOUNDARY_PRESCRIBED_MOTION_RIGID_ID
  99001000                                                                      
  99001000         3         0  99001000       -1.         0                350.
*MAT_RIGID_TITLE
Lower beam
  90000170   7.85E-6      210.       0.3        0.        0.        0.
       0.0        0.        0.
        0.        0.        0.        0.        0.        0.
*MAT_RIGID_TITLE
Pulley frame
  99001000  4.385E-5      210.       0.3        0.        0.        0.
       1.0        4.        7.
        0.        0.        0.        0.        0.        0.
*MAT_RIGID_TITLE
Slipring guide
  99001010   7.85E-6      210.       0.3        0.        0.        0.
       1.0        7.        7.
        0.        0.        0.        0.        0.        0.
*MAT_RIGID_TITLE
Hub
  99002000    2.1E-5      210.       0.3        0.        0.        0.
       0.0        0.        0.
        0.        0.        0.        0.        0.        0.
*MAT_SPRING_ELASTIC_TITLE
Measuring spring
  99002020     1.E-6
*DEFINE_CURVE_TITLE
Retractor loading curve
  90000001         0        1.       10.        0.        0.         0         0
                  0.                  0.
                  1.                 1.1
*DEFINE_CURVE_TITLE
Retractor unloading curve
  90000002         0        1.      100.        0.        0.         0         0
                  0.                  0.
                  1.                 1.1
*DEFINE_CURVE_TITLE
Pretension curve
  90000012         0        1.        1.        0.        0.         0         0
                  0.                0.01
                300.                0.01
                350.                  0.
               1000.                  0.
*DEFINE_CURVE_TITLE
Loading curve
  99001000         0        1.        1.        0.        0.         0         0
              -1000.                  0.
                  0.                  0.
                 10.                  1.
               1000.                  1.
*DATABASE_HISTORY_DISCRETE
  95001311
*END
