$
$ANSA_VERSION;23.1.2;
$
$
$ file created by  A N S A  Tue Jan  9 15:48:20 2024
$
$ output from :
$
$ C:/Work/SOT/SAFER_HBM_validation/model/SAFER_10.0/Untitled
$
$ Settings :
$
$ Output format : R13
$
$ Output : All
$
$ANSA_USER_ATTRIBUTES;Reposition_springs_V11.key;INCLUDE;DM/Status;TEXT;WIP;DM/I
$O Index;TEXT;;
$
$
$
$
$
$
$ANSA_COLOR;Reposition_springs_V11.key;INCLUDE;.717647075653076;.317647069692612
$;.156862750649452;1.;
*KEYWORD
*NODE
99000003       1222.7836         519.086        791.0222       0       0
99000004       1222.1564       290.88327       793.04913       0       0
99000006       592.61975       55.958324       240.21542       0       0
99000007        590.8404        755.6565       240.17816       0       0
99000008        607.1485       100.05132       473.82974       0       0
99000009        607.2255       712.61346        473.9232       0       0
99000010        584.9648       686.54846        617.7427       0       0
99000011        584.8877       121.11632       617.64923       0       0
99000012       1153.6598       496.28973        981.3755       0       0
99000013        1156.363       316.51392        981.4224       0       0
*ELEMENT_BEAM
9900000399000001 252586599000003                                                
9900000499000001 272586599000004                                                
9900000599000000 100021699000009                                                
9900000699000000 120021699000008                                                
9900000799000000 123314099000006                                                
9900000899000000 103313699000007                                                
9900000999000000 101298999000010                                                
9900001099000000 121298999000011                                                
9900001199000001 252401699000012                                                
9900001299000001 272401699000013                                                
*PART
Reposition springs
  99000000  99000000  99000000                             0                    
*SECTION_BEAM_TITLE
Reposition springs
  99000000         6                                      0.          
        1.        1.                  0.        0.        0.        0.        0.
*PART
Reposition springs feet
  99000001  99000001  99000001                             0                    
*SECTION_BEAM_TITLE
Reposition springs feet
  99000001         6                                      0.          
        1.        1.                  0.        0.        0.        0.        0.
*BOUNDARY_SPC_NODE_ID
         1                                                                      
  99000009                   1         1         1         1         1         1
         2                                                                      
  99000008                   1         1         1         1         1         1
         3                                                                      
  99000007                   1         1         1         1         1         1
         4                                                                      
  99000006                   1         1         1         1         1         1
         5                                                                      
  99000004                   1         1         1         1         1         1
         6                                                                      
  99000003                   1         1         1         1         1         1
         9                                                                      
  99000013                   1         1         1         1         1         1
        10                                                                      
  99000012                   1         1         1         1         1         1
        11                                                                      
  99000010                   1         1         1         1         1         1
        12                                                                      
  99000011                   1         1         1         1         1         1
*MAT_CABLE_DISCRETE_BEAM_TITLE
Reposition springs
  99000000     1.E-6        1.                0.05     1000.       10.         0
*MAT_CABLE_DISCRETE_BEAM_TITLE
Reposition springs feet
  99000001     1.E-6        1.                0.05     1000.       10.         0
$ANSA_ID;209;
*DATABASE_HISTORY_BEAM
  99000004  99000008  99000007  99000006  99000005  99000003  99000009  99000010
  99000011  99000012
$ANSA_COLOR;99000000;SECTION_BEAM_ELFORM_6;.647058844566345;.301960796117783;.66
$6666686534882;1.;
$ANSA_COLOR;99000001;SECTION_BEAM_ELFORM_6;0.65490198135376;.168627455830574;.58
$4313750267029;1.;
$ANSA_COLOR;99000000;MAT71 MAT_CABLE_DISCRETE_BEAM;.764705896377563;.83137255907
$0587;.129411771893501;1.;
$ANSA_COLOR;99000001;MAT71 MAT_CABLE_DISCRETE_BEAM;.772549033164978;.70196080207
$8247;.050980392843485;1.;
$ANSA_NAME_COMMENT;209;DATABASE_HISTORY_BEAM;DATABASE_HISTORY_OPTION@_196;;NO;NO
$;NO;
$ANSA_PART;GROUP;ID;1160;NAME;2D Elements;PID_OFFSET;0;COLOR;203;202;97;0;IS_COL
$OR_ACTIVE;1;PART_TYPE;Undefined;ATTRIBUTES;2;DM/File Type;ANSA;DM/Status;WIP;CO
$NTAINS;ANSAPART;832;
$ANSA_PART;GROUP;ID;2154;MID;200000;NAME;Neck@200000;PID_OFFSET;0;COLOR;220;165;
$226;0;IS_COLOR_ACTIVE;1;PART_TYPE;Undefined;ATTRIBUTES;2;DM/File Type;ANSA;DM/S
$tatus;WIP;CONTAINS;ANSAGROUP;2160;
$ANSA_PART;GROUP;ID;2160;MID;208000;NAME;Neck-Soft-Tissue;PID_OFFSET;0;COLOR;171
$;213;203;0;IS_COLOR_ACTIVE;1;PART_TYPE;Undefined;ATTRIBUTES;2;DM/File Type;ANSA
$;DM/Status;WIP;CONTAINS;ANSAPART;831;
$ANSA_PART;PART;ID;831;NAME;OTHER ELMNTs;STUDY_VERSION;0;PID_OFFSET;0;COLOR;146;
$221;214;0;IS_COLOR_ACTIVE;1;PART_TYPE;Undefined;ATTRIBUTES;2;DM/File Type;ANSA;
$DM/Status;WIP;CONTAINS;SECTION_BEAM_ELFORM_6;99000000-99000001;
$ANSA_PART;PART;ID;832;NAME;NO PID ELMNTs;STUDY_VERSION;0;PID_OFFSET;0;COLOR;217
$;231;143;0;IS_COLOR_ACTIVE;1;PART_TYPE;Undefined;ATTRIBUTES;2;DM/File Type;ANSA
$;DM/Status;WIP;CONTAINS;DATABASE_HISTORY_BEAM;209;
*END
