$
$ANSA_VERSION;22.1.0;
$
$
$ file created by  A N S A  Fri Dec  9 10:52:05 2022
$
$ output from :
$
$ C:/Work/SOT/SAFER_HBM_validation/Thorax-table-top-Kent-2004/SAFER_10.0/01_hub/
$ Untitled
$
$ Settings :
$
$ Output format : R12.2
$
$ Output : All
$
$ANSA_USER_ATTRIBUTES;Reposition_springs.key;INCLUDE;DM/Status;TEXT;WIP;DM/IO In
$dex;TEXT;;
$
$
$
$
$
$
$ANSA_COLOR;Reposition_springs.key;INCLUDE;.717647075653076;.317647069692612;.15
$6862750649452;1.;
*KEYWORD
*NODE
99000003       1222.7836         519.086        791.0222       0       0
99000004       1222.1564       290.88327       793.04913       0       0
99000006       592.61975       55.958324       240.21542       0       0
99000007        590.8404        755.6565       240.17816       0       0
99000008        607.1485       100.05132       473.82974       0       0
99000009        607.2255       712.61346        473.9232       0       0
99000010        584.9648       686.54846        617.7427       0       0
99000011        584.8877       121.11632       617.64923       0       0
99000012       1153.6598       496.28973        981.3755       0       0
99000013        1156.363       316.51392        981.4224       0       0
*ELEMENT_BEAM
9900000399000001 221580299000003                                                
9900000499000001 224180299000004                                                
9900000599000000 220506799000009                                                
9900000699000000 219726599000008                                                
9900000799000000 154059899000006                                                
9900000899000000 164059899000007                                                
9900000999000000 220198399000010                                                
9900001099000000 219418399000011                                                
9900001199000001 221387899000012                                                
9900001299000001 223987899000013                                                
*PART
Reposition springs
  99000000  99000000  99000000                             0                    
*SECTION_BEAM_TITLE
Reposition springs
  99000000         6                                      0.          
        1.        1.                  0.        0.        0.        0.        0.
*PART
Reposition springs feet
  99000001  99000001  99000001                             0                    
*SECTION_BEAM_TITLE
Reposition springs feet
  99000001         6                                      0.          
        1.        1.                  0.        0.        0.        0.        0.
*BOUNDARY_SPC_NODE_ID
         1                                                                      
  99000009                   1         1         1         1         1         1
         2                                                                      
  99000008                   1         1         1         1         1         1
         3                                                                      
  99000007                   1         1         1         1         1         1
         4                                                                      
  99000006                   1         1         1         1         1         1
         5                                                                      
  99000004                   1         1         1         1         1         1
         6                                                                      
  99000003                   1         1         1         1         1         1
         9                                                                      
  99000013                   1         1         1         1         1         1
        10                                                                      
  99000012                   1         1         1         1         1         1
        11                                                                      
  99000010                   1         1         1         1         1         1
        12                                                                      
  99000011                   1         1         1         1         1         1
*MAT_CABLE_DISCRETE_BEAM_TITLE
Reposition springs
  99000000     1.E-6        1.                0.05     1000.       10.         0
*MAT_CABLE_DISCRETE_BEAM_TITLE
Reposition springs feet
  99000001     1.E-6        1.                0.05     1000.       10.         0
$ANSA_ID;209;
*DATABASE_HISTORY_BEAM
  99000004  99000008  99000007  99000006  99000005  99000003  99000009  99000010
  99000011  99000012
$ANSA_COLOR;99000000;SECTION_BEAM_ELFORM_6;.647058844566345;.301960796117783;.66
$6666686534882;1.;
$ANSA_COLOR;99000001;SECTION_BEAM_ELFORM_6;0.65490198135376;.168627455830574;.58
$4313750267029;1.;
$ANSA_COLOR;99000000;MAT71 MAT_CABLE_DISCRETE_BEAM;.764705896377563;.83137255907
$0587;.129411771893501;1.;
$ANSA_COLOR;99000001;MAT71 MAT_CABLE_DISCRETE_BEAM;.772549033164978;.70196080207
$8247;.050980392843485;1.;
$ANSA_NAME_COMMENT;209;DATABASE_HISTORY_BEAM;DATABASE_HISTORY_OPTION@_196;;NO;NO
$;NO;
$ANSA_PART;GROUP;ID;2154;MID;200000;NAME;Neck;PID_OFFSET;0;COLOR;220;165;226;0;I
$S_COLOR_ACTIVE;1;PART_TYPE;Undefined;ATTRIBUTES;2;DM/File Type;ANSA;DM/Status;W
$IP;CONTAINS;ANSAGROUP;2160;
$ANSA_PART;GROUP;ID;2160;MID;208000;NAME;Neck-Soft-Tissue;PID_OFFSET;0;COLOR;171
$;213;203;0;IS_COLOR_ACTIVE;1;PART_TYPE;Undefined;ATTRIBUTES;2;DM/File Type;ANSA
$;DM/Status;WIP;CONTAINS;ANSAPART;1887;
$ANSA_PART;GROUP;ID;2166;MID;900000;NAME;VIVA_OpenHBM_LGPL_F50_Head_spine_2_morp
$hed_14.key;PID_OFFSET;0;COLOR;238;154;73;50;IS_COLOR_ACTIVE;1;PART_TYPE;Undefin
$ed;ATTRIBUTES;2;DM/File Type;ANSA;DM/Status;WIP;CONTAINS;ANSAPART;1886;
$ANSA_PART;PART;ID;1886;NAME;NO PID ELMNTs;STUDY_VERSION;0;PID_OFFSET;0;COLOR;14
$9;187;193;0;IS_COLOR_ACTIVE;1;PART_TYPE;Undefined;ATTRIBUTES;2;DM/File Type;ANS
$A;DM/Status;WIP;CONTAINS;DATABASE_HISTORY_BEAM;209;
$ANSA_PART;PART;ID;1887;NAME;OTHER ELMNTs;STUDY_VERSION;0;PID_OFFSET;0;COLOR;146
$;221;214;0;IS_COLOR_ACTIVE;0;GET_COLOR_FROM_ID;2160;PART_TYPE;Undefined;ATTRIBU
$TES;2;DM/File Type;ANSA;DM/Status;WIP;CONTAINS;SECTION_BEAM_ELFORM_6;99000000-9
$9000001;
*END
