$
$ANSA_VERSION;21.1.0;
$
$
$ file created by  A N S A  Thu Oct 21 21:00:37 2021
$
$ output from :
$
$ C:/Users/iraeus/Documents/Projects/VIRTUAL/ViVA+/Validation/0.2.5/Kent_2003/00
$ 1/50M/3-Xbelt/Untitled
$
$ Settings :
$
$ Output format : R11.2
$
$ Output : All
$
$ANSA_USER_ATTRIBUTES;X_belt.key;INCLUDE;DM/Status;TEXT;WIP;DM/IO Index;TEXT;;
$
$
$
$
$
$
$ANSA_COLOR;X_belt.key;INCLUDE;.694117665290833;0.26274511218071;.28235295414924
$6;1.;
*KEYWORD
*NODE
95000001        278.4467       469.45862            535.       0       0
95000002        270.1563       475.05054            535.       0       0
95000003        270.1563       475.05054            525.       0       0
95000004        278.4467       469.45862            525.       0       0
95000005       286.73706        463.8667            535.       0       0
95000006       286.73706        463.8667            525.       0       0
95000007       295.02744       458.27475            535.       0       0
95000008       295.02744       458.27475            525.       0       0
95000009        278.4467       469.45862            545.       0       0
95000010        270.1563       475.05054            545.       0       0
95000011        303.3178       452.68283            535.       0       0
95000012        303.3178       452.68283            525.       0       0
95000013       286.73706        463.8667            545.       0       0
95000014        311.6082        447.0909            535.       0       0
95000015        311.6082        447.0909            525.       0       0
95000016       295.02744       458.27475            545.       0       0
95000017       319.89856       441.49896            535.       0       0
95000018       319.89856       441.49896            525.       0       0
95000019        278.4467       469.45862            555.       0       0
95000020        270.1563       475.05054            555.       0       0
$ ... 1860 like lines cut
*CONSTRAINED_NODAL_RIGID_BODY
       319                 999                   0         0         0
  95001683                 998                   0         0         0
  95001960                 997                   0         0         0
  95001973                 996                   0         0         0
*ELEMENT_BEAM_ORIENTATION
95001301990010009500140195001402                                                
        0.        0.        1.
95001302990010109500140395001404                                                
        1.        0.        0.
95001303990010009500140595001406                                                
        0.        0.        1.
95001304990010009500140295001405                                                
        0.        0.        1.
95001306990010009500140995001401                                                
        0.        0.        1.
95001307990010109500141095001411                                                
        1.        0.        0.
95001308990010009500141295001409                                                
        0.        0.        1.
95001310990010009500140695001412                                                
        0.        0.        1.
95001618990010109500178995001790                                                
        1.        0.        0.
95001619990010109500179195001792                                                
        1.        0.        0.
*ELEMENT_DISCRETE
95001311990020209500122895000871                      0.       0              0.
*ELEMENT_SEATBELT
95001001990020109500186395001864                      0.
95001002990020109500186295001863                      0.
95001003990020109500186095001861                      0.
95001004990020109500185995001860                      0.
95001005990020109500185895001859                      0.
95001006990020109500185795001858                      0.
95001007990020109500185695001857                      0.
95001008990020109500185595001856                      0.
95001316990020109500142095001421                      0.
95001317990020109500142295001420                      0.
95001318990020109500142395001424                      0.
95001319990020109500142595001426                      0.
95001320990020109500142795001425                      0.
95001321990020109500142895001427                      0.
95001322990020109500142995001428                      0.
95001323990020109500143095001429                      0.
95001324990020109500143195001430                      0.
95001325990020109500143295001431                      0.
95001326990020109500143395001432                      0.
95001328990020109500143695001423                      0.
$ ... 82 like lines cut
*ELEMENT_SHELL
950000019000017095000001950000029500000395000004
950000029000017095000005950000019500000495000006
950000039000017095000007950000059500000695000008
950000049000017095000009950000109500000295000001
950000059000017095000011950000079500000895000012
950000069000017095000013950000099500000195000005
950000079000017095000014950000119500001295000015
950000089000017095000016950000139500000595000007
950000099000017095000017950000149500001595000018
950000109000017095000019950000209500001095000009
950000119000017095000021950000169500000795000011
950000129000017095000022950000179500001895000023
950000139000017095000024950000199500000995000013
950000149000017095000025950000219500001195000014
950000159000017095000026950000229500002395000027
950000169000017095000028950000249500001395000016
950000179000017095000029950000259500001495000017
950000189000017095000030950000269500002795000031
950000199000017095000032950000339500002095000019
950000209000017095000034950000289500001695000021
$ ... 980 like lines cut
*ELEMENT_SHELL_BETA
950010099900200095001476950014759500135295001353
              0.              0.              0.              0.       1.1749895
950010109900200095001475950014749500135195001352
              0.              0.              0.              0.       1.1761291
950010119900200095001472950014719500134895001349
              0.              0.              0.              0.       1.1786919
950010129900200095001471950014709500134795001348
              0.              0.              0.              0.       358.82074
950010139900200095001470950014699500134695001347
              0.              0.              0.              0.        358.8203
950010149900200095001469950014689500134595001346
              0.              0.              0.              0.       1.1799601
950010159900200095001468950014679500134495001345
              0.              0.              0.              0.       1.1800939
950010169900200095001467950014669500134395001344
              0.              0.              0.              0.       358.81992
950010179900200095001466950014659500134295001343
              0.              0.              0.              0.       358.82007
950010189900200095001465950014649500134195001342
              0.              0.              0.              0.       1.1796273
$ ... 1148 like lines cut
*ELEMENT_SEATBELT_PRETENSIONER
         1         4  90000001                              
  90000001        0.  90000012
         2         4  90000001                              
  90000002        0.  90000012
         3         4  90000001                              
  90000003        0.  90000012
         4         4  90000001                              
  90000004        0.  90000012
*ELEMENT_SEATBELT_RETRACTOR
  90000001  95001401  95001351  90000002                                        
        0.        0.  90000001  90000002       15.
  90000002  95001406  95001318  90000002                                        
        0.        0.  90000001  90000002       15.
  90000003  95001409  95001677  90000002                                        
        0.        0.  90000001  90000002       15.
  90000004  95001405  95001622  90000002                                        
        0.        0.  90000001  90000002       15.
*ELEMENT_SEATBELT_SENSOR
  90000001         3         0
       0.1
  90000002         3         0
      300.
*ELEMENT_SEATBELT_SLIPRING
  94999999  95001972  95001637        0.  95001790     1.E20        0.         0
        0.                   0        0.                              
  95000000  95001662  95001948        0.  95001792     1.E20        0.         0
        0.                   0        0.                              
  95000001  95001349  95001370        0.  95001404     1.E20        0.         0
        0.                   0        0.                              
  95000002  95001682  95001332        0.  95001411     1.E20        0.         0
        0.                   0        0.                              
*PART
Beam lower
$      PID|    SECID|      MID|         |     HGID|     GRAV|   ADPOPT|     TMID|
  90000170  90000170  90000170                             0         0          
*SECTION_SHELL_TITLE
Beam lower
$    SECID|   ELFORM|     SHRF|      NIP|    PROPT|  QR/IRID|    ICOMP|
  90000170         2        1.        2.        1.         0         0
$       T1|       T2|       T3|       T4|     NLOC|    MAREA|     IDOF|   EDGSET|
        1.        1.        1.        1.                            0.          
*PART
Pulley frame
$      PID|    SECID|      MID|         |     HGID|     GRAV|         |     TMID|
  99001000  99001000  99001000                             0                    
*SECTION_BEAM_TITLE
Pulley frame
$    SECID|   ELFORM|     SHRF|  QT/IRID|      CST|         |      NSM|
  99001000         1        1.         2        0.                    
$      TS1|      TS2|      TT1|      TT2|    NSLOC|    NTLOC|
       10.       10.        5.        5.        0.        0.
*PART
Slipring guide
$      PID|    SECID|      MID|         |     HGID|     GRAV|         |     TMID|
  99001010  99001010  99001010                             0                    
*SECTION_BEAM_TITLE
Slipring guide
$    SECID|   ELFORM|     SHRF|  QT/IRID|      CST|         |      NSM|
  99001010         1        1.         2        0.                    
$      TS1|      TS2|      TT1|      TT2|    NSLOC|    NTLOC|
       10.       10.        5.        5.        0.        0.
*PART
Belt low stretch
$      PID|    SECID|      MID|         |     HGID|     GRAV|   ADPOPT|     TMID|
  99002000  99002000  99002000                             0         0          
*SECTION_SHELL_TITLE
Belt low stretch
$    SECID|   ELFORM|     SHRF|      NIP|    PROPT|  QR/IRID|    ICOMP|
  99002000         9     0.833        2.        1.         0         0
$       T1|       T2|       T3|       T4|     NLOC|    MAREA|     IDOF|   EDGSET|
        1.        1.        1.        1.                            0.          
*PART
Belt 1-D low stretch
$      PID|    SECID|      MID|         |     HGID|
  99002010  99002010  99002010                    
*SECTION_SEATBELT_TITLE
Belt 1-D low stretch
$    SECID|
  99002010
*PART
Measuring spring
$      PID|    SECID|      MID|         |     HGID|     GRAV|         |     TMID|
  99002020  99002020  99002020                             0                    
*SECTION_DISCRETE_TITLE
Measuring spring
$    SECID|      DRO|       KD|       V0|       CL|    FDefl|
  99002020         0                                        
$      CDL|      TDL|
                    
*BOUNDARY_PRESCRIBED_MOTION_RIGID_ID
  99001000                                                                      
  99001000         3         0  99001000       -1.         0                  0.
*MAT_RIGID_TITLE
Lower beam
$      MID|       RO|        E|       PR|        N|   COUPLE|        M| ALIAS_RE|
  90000170   7.85E-6      210.       0.3        0.        0.        0.
$      CMO|     CON1|     CON2|
       0.0        0.        0.
$       A1|       A2|       A3|       V1|       V2|       V3|
        0.        0.        0.        0.        0.        0.
*MAT_RIGID_TITLE
Pulley frame
$      MID|       RO|        E|       PR|        N|   COUPLE|        M| ALIAS_RE|
  99001000  4.385E-5      210.       0.3        0.        0.        0.
$      CMO|     CON1|     CON2|
       1.0        4.        7.
$       A1|       A2|       A3|       V1|       V2|       V3|
        0.        0.        0.        0.        0.        0.
*MAT_RIGID_TITLE
Slipring guide
$      MID|       RO|        E|       PR|        N|   COUPLE|        M| ALIAS_RE|
  99001010   7.85E-6      210.       0.3        0.        0.        0.
$      CMO|     CON1|     CON2|
       1.0        7.        7.
$       A1|       A2|       A3|       V1|       V2|       V3|
        0.        0.        0.        0.        0.        0.
*MAT_FABRIC_TITLE
Belt low-stretch
$      MID|       RO|       EA|       EB|         |     PRBA|     PRCA|
  99002000     2.E-7       10.                           0.3          
$      GAB|                   |      CSE|       EL|      PRL|   LRATIO|     DAMP|
                                                                                
$     AOPT|      FLC|      FAC|      ELA|     LNRC|     FORM|    FVOPT|   TSRFAC|
                                      0.       0.0       0.0                    
$         |   RGBRTH|    A0REF|       A1|       A2|       A3|       X0|       X1|
                                                                                
$       V1|       V2|       V3|       D1|       D2|       D3|     BETA|   ISREFG|
                                                                                
*MAT_SEATBELT_TITLE
Belt 1-D low stretch
$      MID|     MPUL|    LLCID|    ULCID|     LMIN|      CSE|     DAMP|        E|
  99002010     6.E-5  99002010  99002010       0.1        0.       0.1        0.
*MAT_SPRING_ELASTIC_TITLE
Measuring spring
$      MID|        K|
  99002020     1.E-6
*DEFINE_CURVE_TITLE
Retractor loading curve
  90000001         0        1.       10.        0.        0.         0         0
                  0.                  0.
                  1.                 1.1
*DEFINE_CURVE_TITLE
Retractor unloading curve
  90000002         0        1.      100.        0.        0.         0         0
                  0.                  0.
                  1.                 1.1
*DEFINE_CURVE_TITLE
Pretension curve
  90000012         0        1.        1.        0.        0.         0         0
                  0.                0.01
                300.                0.01
                350.                  0.
               1000.                  0.
*DEFINE_CURVE_TITLE
Loading curve
  99001000         0        1.        1.      350.        0.         0         0
              -1000.                  0.
                  0.                  0.
                 10.                 0.8
               1000.                 0.8
*DEFINE_CURVE_TITLE
Belt loading
  99002010         0        1.        1.        0.        0.         0         0
                  0.                  0.
                 0.1                100.
*SET_NODE_LIST
       996                                        
  95002205  95001916  95001985  95002054  95002123  95002192
*SET_NODE_LIST
       997                                        
  95002204  95001041  95001917  95001986  95002055  95002124
*SET_NODE_LIST
       998                                        
  95001862  95001354  95001275  95001196  95001117  95001854
*SET_NODE_LIST
       999                                        
  95001861  95001476  95001353  95001274  95001195  95001116
*DATABASE_HISTORY_DISCRETE
  95001311
$ANSA_COLOR;90000170;SECTION_SHELL;.643137276172638;.690196096897125;.7568627595
$90149;1.;
$ANSA_COLOR;99001000;SECTION_BEAM_ELFORM_1;.721568644046783;.529411792755127;0.5
$686274766922;1.;
$ANSA_COLOR;99001010;SECTION_BEAM_ELFORM_1;.815686285495758;.576470613479614;0.6
$9803923368454;1.;
$ANSA_COLOR;99002000;SECTION_SHELL;0.82745099067688;.352941185235977;.7764706015
$58685;1.;
$ANSA_COLOR;99002010;SECTION_SEATBELT;0.82745099067688;.984313726425171;.9372549
$05700684;1.;
$ANSA_COLOR;99002020;SECTION_DISCRETE;.952941179275513;.317647069692612;.9019607
$90157318;1.;
$ANSA_COLOR;90000170;MAT20 MAT_RIGID;.745098054409027;.729411780834198;.73333334
$9227905;1.;
$ANSA_COLOR;99001000;MAT20 MAT_RIGID;.792156875133514;0.18823529779911;0.1882352
$9779911;1.;
$ANSA_COLOR;99001010;MAT20 MAT_RIGID;.772549033164978;.733333349227905;.97647058
$9637756;1.;
$ANSA_COLOR;99002000;MAT34 MAT_FABRIC;.541176497936249;.317647069692612;.0588235
$29630899;1.;
$ANSA_COLOR;99002010;MAT_B01 MAT_SEATBELT;.541176497936249;.423529416322708;.156
$862750649452;1.;
$ANSA_COLOR;99002020;MAT200 MAT_SPRING_ELASTIC;.709803938865662;0.91372549533844
$;.137254908680916;1.;
$ANSA_SEATBELT;ID;1;NAME;Default Seatbelt Entity;COLOR;243;254;9;100;DISABLE_P2W
$;0;PROP_CONTAINS;SECTION_SHELL(406001,456001,506001,556001);PROP_NAMES;4;TX-Ski
$n-L;TX-Skin-R;AB-Soft-Skin-L;AB-Soft-Skin-R;PROP_IDS;4;406001;456001;506001;556
$001;CONTACT_NAME;;CREATE_CNCT;0;AUTO_RECREATE;0;USE_REAL_THICKNESS;0;THICKNESS_
$FACTOR;1.;APPLY_CONSTANT_WIDTH;1;SMOOTH_BELT;0;UNFOLD_BELT;0;CHECK_QUALITY;1;BE
$LT_TYPE;0;KEEP_ID_RANGE;1;N_RBODY_CONS_SET;0;MAT_ORIENT;0;NUM_OF_COMPONENTS;3;C
$OMP_NAME;Component_1;POINTS_NAME;SBPoint;INDEX;0;GENTYPE;1;FLIPPED_ENTRY;0;FLIP
$PED_EXIT;0;LENGTH_1;100.;LENGTH_2;100.;EL_LENGTH;12.5;EL_OFFSET;5.;NUM_OF_SHELL
$S;4;EXTEND_SBLTS;0;CREATE_TRIAS_AT_END;0;CREATE_TRIAS_AT_START;0;IS_FROZEN;0;IS
$_MEMBRANE;0;STATUS_ERROR;0;PSBLT_NAME;Belt 1-D low stretch;PSBLT_ID;99002010;SB
$LT_POINTS;2;0;SBPoint_1_0;848.1164;164.1221;-200.;1;SBPoint_2_0;848.1164;164.12
$21;0.;ENTRY_VEC;0.;0.;0.;EXIT_VEC;0.;0.;0.;SP_ENTITY;2;EP_ENTITY;1;START_PART_T
$YPE;0;END_PART_TYPE;0;MAIN_PART_TYPE_v14;0;CONTAINS;ELEMENT_SEATBELT(95001316-9
$5001317,95001342,95001345-95001357) ELEMENT_SEATBELT_SLIPRING(95000001) NODE(95
$001418,95001420-95001422,95001449-95001450,95001452-95001462);SBLT_NODE_IDS;2;9
$5001401;95001404;SBLT_POINTS_TYPES;2;0;0;SBLT_POINTS_ENTITY_TYPE;2;0;0;STIFFENE
$R_CREATE;0;START_ANCHOR_ELEM_NUM;1073741824;COMP_NAME;Component_2;POINTS_NAME;S
$BPoint;INDEX;1;GENTYPE;0;FLIPPED_ENTRY;0;FLIPPED_EXIT;0;LENGTH_1;100.;LENGTH_2;
$100.;EL_LENGTH;12.5;EL_OFFSET;5.;NUM_OF_SHELLS;4;EXTEND_SBLTS;0;CREATE_TRIAS_AT
$_END;0;CREATE_TRIAS_AT_START;0;IS_FROZEN;0;IS_MEMBRANE;0;STATUS_ERROR;0;PSHELL_
$NAME;Belt low stretch;PSHELL_ID;99002000;PSBLT_NAME;Belt 1-D low stretch;PSBLT_
$ID;99002010;SBLT_POINTS;3;0;SBPoint_2_0;848.1164;164.1221;0.;1;SBPoint_2_1;410.
$159235593994;406.5;365.783888340547;2;SBPoint_3_0;192.6;553.6;0.;ENTRY_VEC;0.;0
$.;0.;EXIT_VEC;0.;0.;0.;SP_ENTITY;1;EP_ENTITY;1;START_PART_TYPE;0;END_PART_TYPE;
$0;MAIN_PART_TYPE_v14;0;CONTAINS;CONSTRAINED_NODAL_RIGID_BODY(319,95001683) ELEM
$ENT_SHELL(95001009-95001300,95001305,95001309,95001312-95001315,95001327,950013
$35-95001341,95001343-95001344,95001358-95001361) ELEMENT_SEATBELT(95001001-9500
$1008,95001370,95001678-95001682) ELEMENT_SEATBELT_SLIPRING(95000002) NODE(95001
$042-95001400,95001407-95001408,95001413-95001417,95001419,95001434-95001435,950
$01442-95001448,95001451,95001463-95001476,95001851-95001868);SBLT_PATH;95;1;848
$.1164;164.1221;0.;-.61169755193579;.227423181817934;.757697037956179;-.21800340
$869446;-.96295287472832;.158733345110769;-.21800340869446;-.96295287472832;.158
$733345110769;0.;0.;0.;0;1;0;2;840.470180600803;166.964889772724;9.4712129744522
$4;-.60941749226052;0.2262578146621;.759557053378034;-.21037998244581;-0.9647269
$247834;.158247349374542;-.21037998244581;-0.9647269247834;.158247349374542;0.;0
$.;0.;0;1;0;3;832.823961201605;169.807679545448;18.9424259489045;-.6071374325852
$4;.225092447506266;.761417068799889;-0.2027381236113;-.96644285537936;.15775126
$1550445;-0.2027381236113;-.96644285537936;.157751261550445;0.;0.;0.;0;0;0;4;825
$.177741802408;172.650469318172;28.4136389233567;-.60485737290997;.2239270803504
$32;.763277084221745;-.19507850597168;-.96810038372141;0.15724510658942;-.195078
$50597168;-.96810038372141;0.15724510658942;0.;0.;0.;0;0;0;5;817.53152240321;175
$.493259090897;37.884851897809;-.60257731323469;.222761713194598;0.7651370996436
$;-.18740180846573;-.96969923714431;.156728911390054;-.18740180846573;-.96969923
$714431;.156728911390054;0.;0.;0.;0;0;0;6;809.885303004013;178.336048863621;47.3
$560648722612;-.60029725355942;.221596346038764;.766997115065455;-0.179708714996
$;-.97123915323091;.156202704796669;-0.179708714996;-.97123915323091;.1562027047
$96669;0.;0.;0.;0;0;0;7;802.239083604816;181.178838636345;56.8272778467135;-.598
$01719388415;0.22043097888293;0.76885713048731;-.17199991423153;-.97271987992624
$;.155666517596491;-.17199991423153;-.97271987992624;.155666517596491;0.;0.;0.;0
$;0;0;8;794.592864205618;184.021628409069;66.2984908211657;-.59573713420887;.219
$265611727096;.770717145909165;-.16427609940756;-.97414117564733;.15512038251590
$3;-.16427609940756;-.97414117564733;.155120382515903;0.;0.;0.;0;0;0;9;786.94664
$4806421;186.864418181793;75.7697037956179;-0.5934570745336;.218100244571262;0.7
$7257716133102;-.15653796812238;-.97550280938834;.154564334215776;-.156537968122
$38;-.97550280938834;.154564334215776;0.;0.;0.;0;0;0;10;779.300425407223;189.707
$207954517;85.2409167700702;-.59117701485832;.216934877415428;.774437176752875;-
$.14878622213152;-.97680456082128;.153998409285882;-.14878622213152;-.9768045608
$2128;.153998409285882;0.;0.;0.;0;0;0;11;771.654206008026;192.549997727242;94.71
$21297445224;-.58889695518305;.215769510259594;0.77629719217473;-.14102156713935
$;-.97804622039184;.153422646238383;-.14102156713935;-.97804622039184;.153422646
$238383;0.;0.;0.;0;0;0;12;764.007986608829;195.392787499966;104.183342718975;-.5
$8661689550777;0.21460414310376;.778157207596585;-.13324471258816;-.979227589410
$67;.152837085500401;-.13324471258816;-.97922758941067;.152837085500401;0.;0.;0.
$;0;0;0;13;756.361767209631;198.23557727269;113.654555693427;-0.5843368358325;.2
$13438775947926;0.78001722301844;-.12545637144497;-.98034848013963;.152241769405
$674;-.12545637144497;-.98034848013963;.152241769405674;0.;0.;0.;0;0;0;14;748.71
$5547810434;201.078367045414;123.125768667879;-.58205677615723;.212273408792092;
$.781877238440296;-.11765725998608;-.98140871587326;.151636742185292;-.117657259
$98608;-.98140871587326;.151636742185292;0.;0.;0.;0;0;0;15;741.069328411236;203.
$921156818138;132.596981642331;-.57977671648195;.211108041636258;.78373725386215
$1;-.10984809757963;-.98240813101519;.151022049957526;-.10984809757963;-.9824081
$3101519;.151022049957526;0.;0.;0.;0;0;0;16;733.423109012039;206.763946590863;14
$2.068194616784;-.57749665680668;.209942674480424;.785597269284006;-.10202960646
$616;-.98334657114959;.150397740716745;-.10202960646616;-.98334657114959;.150397
$740716745;0.;0.;0.;0;0;0;17;725.776889612842;209.606736363587;151.539407591236;
$-0.5752165971314;.208777307324591;.787457284705861;-.09420251153743;-.984223893
$10743;.149763864321436;-.09420251153743;-.98422389310743;.149763864321436;0.;0.
$;0.;0;0;0;18;718.130670213644;212.449526136311;161.010620565688;-.5729365374561
$3;.207611940168757;.789317300127716;-.08636754011357;-.98503996502765;0.1491204
$7248132;-.08636754011357;-.98503996502765;0.14912047248132;0.;0.;0.;0;0;0;19;71
$0.484450814447;215.292315909035;170.48183354014;-.57065647778086;.2064465730129
$23;.791177315549571;-.07852542171872;-.98579466641309;.148467618743591;-.078525
$42171872;-.98579466641309;.148467618743591;0.;0.;0.;0;0;0;20;702.83823141525;21
$8.135105681759;179.953046514593;-.56837641810558;.205281205857089;.793037330971
$426;-.07067688785536;-0.9864878881812;.147805358478257;-.07067688785536;-0.9864
$878881812;.147805358478257;0.;0.;0.;0;0;0;21;695.192012016052;220.977895454483;
$189.424259489045;-.56609635843031;.204115838701255;.794897346393281;-.062822671
$77734;-.98711953270938;.147133748862619;-.06282267177734;-.98711953270938;.1471
$33748862619;0.;0.;0.;0;0;0;22;687.545792616855;223.820685227208;198.89547246349
$7;-.56381629875503;.202950471545421;.796757361815136;-.05496350826193;-.9876895
$1387514;.146452848864882;-.05496350826193;-.98768951387514;.146452848864882;0.;
$0.;0.;0;0;0;23;679.899573217657;226.663474999932;208.366685437949;-.56153623907
$976;.201785104389587;.798617377236991;-.04710013338091;-.98819775709069;.145762
$719226906;-.04710013338091;-.98819775709069;.145762719226906;0.;0.;0.;0;0;0;24;
$672.25335381846;229.506264772656;217.837898412402;-.55925617940449;.20061973723
$3753;.800477392658847;-0.0392332842709;-.98864419933237;.145063422446121;-0.039
$2332842709;-.98864419933237;.145063422446121;0.;0.;0.;0;0;0;25;664.607134419263
$;232.34905454538;227.309111386854;-.55697611972921;.199454370077919;.8023374080
$80702;-.03136369890308;-.98902878916443;.144355022756598;-.03136369890308;-.989
$02878916443;.144355022756598;0.;0.;0.;0;0;0;26;656.960915020065;235.19184431810
$4;236.780324361306;-.55469606005394;.198289002922085;.804197423502557;-.0234921
$1585244;-0.9893514867576;.143637586109311;-.02349211585244;-0.9893514867576;.14
$3637586109311;0.;0.;0.;0;0;0;27;651.639894123652;242.7938485954;247.47313502033
$2;-.08879008877038;-.89269793465331;.441822042910792;-0.0535970476679;-.9906085
$6649491;0.12578562902094;-0.0535970476679;-.99060856649491;0.12578562902094;0.;
$0.;0.;0;1;0;28;648.561910062753;238.400470116106;259.553724084836;-.39545882367
$706;.183398035256394;.899987488490839;-.04753002989973;-.98406133314186;0.17135
$982280802;-.04753002989973;-.98406133314186;0.17135982280802;0.;0.;0.;0;1;0;29;
$643.667383096192;241.79109654101;270.686962692672;-0.4960935209781;.33445430586
$9921;.801268703824516;-.05428640736388;-.94890211818367;.310866138525993;-.0542
$8640736388;-.94890211818367;.310866138525993;0.;0.;0.;0;1;0;30;637.470648871861
$;246.131437592051;280.694026513848;-.55755354250056;.398222456293245;.728390638
$702095;-.06489014274007;-0.9062847196124;.417656888333295;-.06489014274007;-0.9
$062847196124;.417656888333295;0.;0.;0.;0;1;0;31;630.496471248814;251.1525942062
$06;289.816849440898;-.61098806966335;.433334389327149;.662506517519273;-.085095
$04494196;-.85634783354957;.509339985963493;-.08509504494196;-.85634783354957;.5
$09339985963493;0.;0.;0.;0;1;0;32;622.881707568513;256.79970786473;297.961231943
$108;-.64441998874599;.459167349469357;.611463999991741;-.09002156667375;-.85519
$960400421;.510421154385905;-.09002156667375;-.85519960400421;.510421154385905;0
$.;0.;0.;0;1;0;33;614.829916932116;262.556351790856;305.597602438802;-.644341279
$01727;.473675222210562;.600379963038543;-.04826805614148;-.82296173041406;.5660
$42564680621;-.04826805614148;-.82296173041406;.566042564680621;0.;0.;0.;0;1;0;3
$4;606.77647146189;268.467129925227;313.114102315805;-.65482155502889;.476164868
$657593;.586920564408711;-.02176654760468;-.78388314193608;.620526741723349;-.02
$176654760468;-.78388314193608;.620526741723349;0.;0.;0.;0;1;0;35;598.5941669567
$53;274.378522960801;320.48687534952;-.65275325761595;.485516052875952;.58132721
$5048847;.014973932284887;-.76611867992864;.642524668488552;.014973932284887;-.7
$6611867992864;.642524668488552;0.;0.;0.;0;1;0;36;590.407242763765;280.393251247
$441;327.77076760158;-.65068496020301;.494867237094312;.575733865688984;.0011755
$51364737;-.76710833516803;.641516500329273;.001175551364737;-.76710833516803;.6
$41516500329273;0.;0.;0.;0;1;0;37;582.221936751168;286.369179020866;335.08731525
$9542;-.64861666279006;.504218421312672;.570140516329121;.085799225652406;-.7166
$9570764654;.692087968049203;.085799225652406;-.71669570764654;.692087968049203;
$0.;0.;0.;0;0;0;38;574.114228466292;292.671909287274;342.214071713656;-.66166155
$695425;.503987230007254;.554792827803538;.150921891706329;-.65305187456154;.742
$122518008611;.150921891706329;-.65305187456154;.742122518008611;0.;0.;0.;0;1;0;
$39;566.030179930394;298.897205451071;349.448485038468;-.67470645111843;.5037560
$38701836;.539445139277955;.175639326943627;-.57483592398852;.799196150718365;.1
$75639326943627;-.57483592398852;.799196150718365;0.;0.;0.;0;1;0;40;557.65839851
$1926;305.103306314649;356.347180671635;-.68427240784683;.523371136738456;0.5062
$ ... 5 like lines cut
$75261058;-.72358293767097;.557537821853302;.406914376146287;.350675386340527;-.
$34379117550169;0.87111101534884;.350675386340527;-.34379117550169;0.87111101534
$884;0.;0.;0.;0;1;0;43;531.617955840279;325.215786948463;374.424407020751;-.7606
$1036879963;.573604287694438;0.30405589619847;.308001361784109;-.17101146751495;
$.935890078544226;.308001361784109;-.17101146751495;.935890078544226;0.;0.;0.;0;
$1;0;44;522.032562557077;332.425613382377;378.170458886048;-.78654225352861;.580
$272744134674;.211269557268802;.212388440356904;-.12399438738627;0.9692866151451
$1;.212388440356904;-.12399438738627;0.96928661514511;0.;0.;0.;0;1;0;45;512.2218
$98502279;339.807655043296;380.886988502479;-0.8237170473777;.556727623275884;0.
$10744570415307;.219900994599156;.092689618523245;.971108741177999;.219900994599
$156;.092689618523245;.971108741177999;0.;0.;0.;0;1;0;46;501.838336614641;346.74
$7540838103;382.054487342421;-.82248790440201;.567279929138917;-.04131741894804;
$.118408446849348;.088929558642743;.988974708126721;.118408446849348;.0889295586
$42743;.988974708126721;0.;0.;0.;0;1;0;47;491.557330664033;354.08484917937;382.1
$86255303688;-.82469530783025;0.56169689577795;-.06239981074428;.047086338706907
$;.253274184256408;.966247931069676;.047086338706907;.253274184256408;.966247931
$069676;0.;0.;0.;0;1;0;48;481.219776703053;360.959082609781;380.864542097607;-.8
$2690271125849;.556113862416982;-.08348220254053;-.01101102460924;0.235431560584
$19;.971828553613212;-.01101102460924;0.23543156058419;.971828553613212;0.;0.;0.
$;0;1;0;49;470.866230326496;367.916925841693;379.931804982474;-.82680567535393;.
$556166315310918;-.08407852467678;-.05062899730826;.187248756907285;.98100693558
$6205;-.05062899730826;.187248756907285;.981006935586205;0.;0.;0.;0;1;0;50;460.5
$50456362541;374.792494206793;378.4908692166;-.82670863944937;.556218768204854;-
$.08467484681303;0.02952534013224;.137325815958473;.990085791515773;0.0295253401
$3224;.137325815958473;.990085791515773;0.;0.;0.;0;0;0;51;450.21417247181;381.74
$3917487005;377.447341684843;-.82661160354481;0.55627122109879;-.08527116894928;
$.018354415507129;.132745285906689;.990980224071572;.018354415507129;.1327452859
$06689;.990980224071572;0.;0.;0.;0;0;0;52;439.877888581079;388.695340767218;376.
$403814153087;-.82651456764025;.556323673992726;-.08586749108553;.00717789845834
$4;.128144102098723;.991729583541317;.007177898458344;.128144102098723;.99172958
$3541317;0.;0.;0.;0;0;0;53;429.541604690348;395.64676404743;375.36028662133;-.82
$641753173569;.556376126886662;-.08646381322178;-.00400175435885;.12352326361630
$7;.992333607869666;-.00400175435885;.123523263616307;.992333607869666;0.;0.;0.;
$0;0;0;54;419.205320799616;402.598187327642;374.316759089574;-.82632049583113;.5
$56428579780598;-.08706013535803;-.01518208319702;.118883778891612;.992792098813
$366;-.01518208319702;.118883778891612;.992792098813366;0.;0.;0.;0;0;0;55;408.86
$9036908885;409.549610607854;373.273231557817;-.82622345992657;.556481032674533;
$-.08765645749428;-.02636062701962;.114226664973107;.993104922126687;-.026360627
$01962;.114226664973107;.993104922126687;0.;0.;0.;0;0;0;56;398.541243659803;416.
$505623516286;372.177525839139;-0.8245243681686;.556327991497005;-.1032411360508
$6;-.03891395962134;.112252751362008;.992917430382934;-.03891395962134;.11225275
$1362008;.992917430382934;0.;0.;0.;0;1;0;57;388.229939772199;423.47252329538;370
$.98380625143;-.81907332924611;.557233783247549;-.13641624582619;-0.048584700141
$9;.130941505529549;.990198893678324;-0.0485847001419;.130941505529549;.99019889
$3678324;0.;0.;0.;0;1;0;58;377.974267316395;430.448735681997;369.370302579448;-.
$81382173738943;.544308175963779;-.20352589351587;-.11506869344592;.123356184034
$249;.985668528283803;-.11506869344592;.123356184034249;.985668528283803;0.;0.;0
$.;0;1;0;59;367.778576613464;437.296930047053;366.964664007913;-.80715064937925;
$.535864984128084;-.24411701663783;-.13333732170619;0.20162648225383;.9703442277
$32698;-.13333732170619;0.20162648225383;.970344227732698;0.;0.;0.;0;1;0;60;357.
$640421894263;444.048436035673;364.168669841965;-.80047956136906;.52742179229238
$9;-.28470813975979;-.13333732170619;.201626482253832;.970344227732698;-.1333373
$2170619;.201626482253832;.970344227732698;0.;0.;0.;0;1;0;61;347.624955664461;45
$0.638085885682;360.604475130343;-0.7685582046498;.528785470987009;-.36014470944
$126;-.26915970061902;.169607654755542;.948043405657676;-.26915970061902;.169607
$654755542;.948043405657676;0.;0.;0.;0;1;0;62;338.031283177548;457.240158178164;
$356.052170807978;-.73733877649252;.502094422879109;-.45192114267227;-.311591779
$33615;.227050311848257;.922691020298638;-.31159177933615;.227050311848257;.9226
$91020298638;0.;0.;0.;0;1;0;63;328.732899859863;463.588202639586;350.59937122057
$8;-.71302956334355;.507023120804755;-0.4842689302108;-.35969534210668;.31258801
$4975378;0.87915186046582;-.35969534210668;.312588014975378;0.87915186046582;0.;
$0.;0.;0;1;0;64;319.765195020742;469.971079529715;344.63877894791;-.707316080275
$77;.499213019315036;-.49981937546139;-.39618954722408;.337191590461112;.8540115
$18653398;-.39618954722408;.337191590461112;.854011518653398;0.;0.;0.;0;1;0;65;3
$10.995283142402;476.187199196788;338.277263074092;-.70160259720799;.49140291782
$5317;-.51536982071197;-0.4097421835666;.378425023353811;.830003520899607;-0.409
$7421835666;.378425023353811;.830003520899607;0.;0.;0.;0;0;0;66;302.082413600608
$;482.524988206847;332.223901446457;-.69588911414022;.483592816335598;-.53092026
$596255;-.42229559896713;.418756713395429;.803933605516807;-.42229559896713;.418
$756713395429;.803933605516807;0.;0.;0.;0;0;0;67;293.300874564134;488.6574681439
$64;325.735695867027;-.63272972367613;.357094058200386;-.68712220919914;-.433828
$52846026;.458127200537734;.775830056147264;-.43382852846026;.458127200537734;.7
$75830056147264;0.;0.;0.;0;1;0;68;285.324371502831;493.12690716249;317.126400868
$415;-0.6081324615193;.351925662528524;-.70994241887771;-.68824349307113;.427365
$369863157;.586242044625753;-.68824349307113;.427365369863157;.586242044625753;0
$.;0.;0.;0;1;0;69;277.565556581952;497.497249866052;308.409342891947;-.583535199
$36246;.346757266856662;-.73276262855627;-.71006011100996;.371370757608538;.5982
$46102491094;-.71006011100996;.371370757608538;.598246102491094;0.;0.;0.;0;0;0;7
$0;269.656435036001;501.960925593557;299.820315276957;-.55893793720563;.34158887
$1184799;-.75558283823484;-.72926524227109;.313801712764432;.608030173166927;-.7
$2926524227109;.313801712764432;.608030173166927;0.;0.;0.;0;0;0;71;262.645480483
$581;506.2390734456;290.395529621212;-0.4406661789655;.296602991502013;-.8472543
$7983406;-.74571622593708;.255040700092978;.615517304119255;-.74571622593708;.25
$5040700092978;.615517304119255;0.;0.;0.;0;1;0;72;256.527455402589;510.126519527
$6;280.04391893383;-.35446429428694;.244867686435264;-.90243829717909;-.89259171
$664108;.264985661892633;.364777502561569;-.89259171664108;.264985661892633;.364
$777502561569;0.;0.;0.;0;1;0;73;252.682082053776;513.021502354105;268.5284272834
$26;-.21619257714754;.145975609997891;-.96537655392704;-.82815044724243;.3813485
$25683607;.410779915150556;-.82815044724243;.381348525683607;.410779915150556;0.
$;0.;0.;0;1;0;74;249.997098406944;514.844846781466;256.29840671029;-.21619207162
$539;.145975337895259;-.96537670827779;-.87604510315712;.359013823265387;.321953
$493440898;-.87604510315712;.359013823265387;.321953493440898;0.;0.;0.;0;1;0;75;
$247.263616908614;516.690523605348;244.092442084222;-.21619156610323;.1459750657
$92626;-.96537686262855;-.87696881654902;.357845732557642;.320736849287548;-.876
$96881654902;.357845732557642;.320736849287548;0.;0.;0.;0;0;0;76;244.53013541028
$4;518.536200429231;231.886477458154;-.21619106058107;.145974793689994;-0.965377
$0169793;-.87788928699325;.356676318570256;.319519019079694;-.87788928699325;.35
$6676318570256;.319519019079694;0.;0.;0.;0;0;0;77;241.796653911954;520.381877253
$114;219.680512832086;-.21619055505891;.145974521587361;-.96537717133005;-.87880
$651108602;.355505585627611;.318300007320757;-.87880651108602;.355505585627611;.
$318300007320757;0.;0.;0.;0;0;0;78;239.063172413623;522.227554076997;207.4745482
$06019;-.21619004953675;.145974249484729;-.96537732568081;-0.8797204854355;.3543
$33538058967;.317079818518527;-0.8797204854355;.354333538058967;.317079818518527
$;0.;0.;0.;0;0;0;79;236.329690915293;524.073230900879;195.268583579951;-.2161895
$4401459;.145973977382097;-.96537748003156;-.88063120666191;.353160180198445;.31
$5858457185147;-.88063120666191;.353160180198445;.315858457185147;0.;0.;0.;0;0;0
$;80;233.596209416963;525.918907724762;183.062618953883;-.21618903849243;.145973
$705279464;-.96537763438231;-0.8815386713975;.351985516385011;.314635927837095;-
$0.8815386713975;.351985516385011;.314635927837095;0.;0.;0.;0;0;0;81;230.8627279
$18633;527.764584548645;170.856654327815;-.21618853297027;.145973433176832;-.965
$37778873307;-.88244287628653;.350809550962461;0.31341223499517;-.88244287628653
$;.350809550962461;0.31341223499517;0.;0.;0.;0;0;0;82;228.129246420302;529.61026
$1372528;158.650689701747;-.21618802744811;.145973161074199;-.96537794308382;-.8
$8334381798535;.349632288279403;0.31218738318447;-.88334381798535;.3496322882794
$03;0.31218738318447;0.;0.;0.;0;0;0;83;225.395764921972;531.455938196411;146.444
$72507568;-.21618752192595;.145972888971567;-.96537809743458;-.88424149316236;.3
$48453732689244;.310961376934384;-.88424149316236;.348453732689244;.310961376934
$384;0.;0.;0.;0;0;0;84;222.662283423642;533.301615020294;134.238760449612;-.2161
$8701640379;.145972616868935;-.96537825178533;-.88513589849804;0.34727388855017;
$.309734220778564;-.88513589849804;0.34727388855017;.309734220778564;0.;0.;0.;0;
$0;0;85;219.928801925312;535.147291844176;122.032795823544;-.21618651088163;.145
$972344766302;-.96537840613608;-.88602703068497;.346092760225133;0.3085059192549
$2;-.88602703068497;.346092760225133;0.30850591925492;0.;0.;0.;0;0;0;86;217.1953
$20426982;536.992968668059;109.826831197476;-.21618600535947;0.14597207266367;-.
$96537856048684;-.88691488642782;.344910352081834;.307276476905593;-.88691488642
$782;.344910352081834;.307276476905593;0.;0.;0.;0;0;0;87;214.461838928651;538.83
$8645491942;97.6208665714085;-.21618549983732;.145971800561037;-.96537871483759;
$-.88779946244338;.343726668492707;.306045898276945;-.88779946244338;.3437266684
$92707;.306045898276945;0.;0.;0.;0;0;0;88;211.728357430321;540.684322315825;85.4
$149019453407;-.21618499431516;.145971528458405;-.96537886918834;-.8886807554605
$9;.342541713834901;.304814187919539;-.88868075546059;.342541713834901;.30481418
$7919539;0.;0.;0.;0;0;0;89;208.994875931991;542.529999139707;73.2089373192729;-0
$.216184488793;.145971256355773;-0.9653790235391;-.88955876222049;.3413554924902
$67;.303581350388124;-.88955876222049;.341355492490267;.303581350388124;0.;0.;0.
$;0;0;0;90;206.261394433661;544.37567596359;61.0029726932052;-.21618398327084;0.
$14597098425314;-.96537917788985;-.89043347947631;.340168008845338;.302347390241
$616;-.89043347947631;.340168008845338;.302347390241616;0.;0.;0.;0;0;0;91;203.52
$791293533;546.221352787473;48.7970080671374;-.21618347774868;.145970712150508;-
$0.9653793322406;-.89130490399342;.338979267291317;.301112312043083;-.8913049039
$9342;.338979267291317;.301112312043083;0.;0.;0.;0;0;0;92;200.794431437;548.0670
$29611356;36.5910434410696;-.21618297222652;.145970440047875;-.96537948659136;-.
$89217303254937;.337789272224057;.299876120359726;-.89217303254937;.337789272224
$057;.299876120359726;0.;0.;0.;0;0;0;93;198.06094993867;549.912706435239;24.3850
$788150018;-.21618246670436;.145970167945243;-.96537964094211;-.89303786193392;.
$336598028044049;.298638819762867;-.89303786193392;.336598028044049;.29863881976
$2867;0.;0.;0.;0;0;0;94;195.32746844034;551.758383259122;12.1791141889341;-0.216
$1819611822;.145969895842611;-.96537979529286;-.89389938894899;.335405539156398;
$.297400414827925;-.89389938894899;.335405539156398;.297400414827925;0.;0.;0.;0;
$0;0;95;192.6;553.6;0.;-.21618145566004;.145969623739978;-.96537994964362;-.8947
$5572614043;.334214437270369;0.29616363797564;-.89475572614043;.334214437270369;
$0.29616363797564;0.;0.;0.;0;1;0;SBLT_NODE_IDS;3;95001404;4110808;95001411;SBLT_
$POINTS_TYPES;3;0;0;0;SBLT_POINTS_ENTITY_TYPE;3;0;0;0;STIFFENER_CREATE;0;COMP_NA
$ME;Component_3;POINTS_NAME;SBPoint;INDEX;2;GENTYPE;1;FLIPPED_ENTRY;0;FLIPPED_EX
$IT;0;LENGTH_1;100.;LENGTH_2;100.;EL_LENGTH;12.5;EL_OFFSET;5.;NUM_OF_SHELLS;4;EX
$TEND_SBLTS;0;CREATE_TRIAS_AT_END;0;CREATE_TRIAS_AT_START;0;IS_FROZEN;0;IS_MEMBR
$ANE;0;STATUS_ERROR;0;PSBLT_NAME;Belt 1-D low stretch;PSBLT_ID;99002010;SBLT_POI
$NTS;2;0;SBPoint_3_0;192.6;553.6;0.;1;SBPoint_3_1;192.6;553.6;-200.;ENTRY_VEC;0.
$;0.;0.;EXIT_VEC;0.;0.;0.;SP_ENTITY;1;EP_ENTITY;0;START_PART_TYPE;0;END_PART_TYP
$E;0;MAIN_PART_TYPE_v14;0;CONTAINS;ELEMENT_SEATBELT(95001318-95001326,95001328-9
$5001334) NODE(95001423-95001433,95001436-95001438,95001440-95001441);SBLT_NODE_
$IDS;2;95001411;95001406;SBLT_POINTS_TYPES;2;0;0;SBLT_POINTS_ENTITY_TYPE;2;0;0;S
$TIFFENER_CREATE;0;
$ANSA_SEATBELT;ID;2;NAME;Default Seatbelt Entity@_1;COLOR;250;152;189;100;DISABL
$E_P2W;0;PROP_CONTAINS;SECTION_SHELL(406001,456001,506001,556001);PROP_NAMES;4;T
$X-Skin-L;TX-Skin-R;AB-Soft-Skin-L;AB-Soft-Skin-R;PROP_IDS;4;406001;456001;50600
$1;556001;CONTACT_NAME;;CREATE_CNCT;0;AUTO_RECREATE;0;USE_REAL_THICKNESS;0;THICK
$NESS_FACTOR;1.;APPLY_CONSTANT_WIDTH;1;SMOOTH_BELT;0;UNFOLD_BELT;0;CHECK_QUALITY
$;1;BELT_TYPE;0;KEEP_ID_RANGE;1;N_RBODY_CONS_SET;0;MAT_ORIENT;0;NUM_OF_COMPONENT
$S;3;COMP_NAME;Component_1_1;POINTS_NAME;SBPoint;INDEX;0;GENTYPE;1;FLIPPED_ENTRY
$;0;FLIPPED_EXIT;0;LENGTH_1;100.;LENGTH_2;100.;EL_LENGTH;12.5;EL_OFFSET;5.;NUM_O
$F_SHELLS;4;EXTEND_SBLTS;0;CREATE_TRIAS_AT_END;0;CREATE_TRIAS_AT_START;0;IS_FROZ
$EN;0;IS_MEMBRANE;0;STATUS_ERROR;0;PSBLT_NAME;Belt 1-D low stretch;PSBLT_ID;9900
$2010;SBLT_POINTS;2;0;SBPoint_1_0@_1;848.1164;648.8779;-200.;1;SBPoint_2_0@_1;84
$8.1164;648.8779;0.;ENTRY_VEC;0.;0.;0.;EXIT_VEC;0.;0.;0.;SP_ENTITY;2;EP_ENTITY;1
$;START_PART_TYPE;0;END_PART_TYPE;0;MAIN_PART_TYPE_v14;0;CONTAINS;ELEMENT_SEATBE
$LT(95001662-95001677) ELEMENT_SEATBELT_SLIPRING(95000000) NODE(95001834-9500185
$0);SBLT_NODE_IDS;2;95001409;95001792;SBLT_POINTS_TYPES;2;0;0;SBLT_POINTS_ENTITY
$_TYPE;2;0;0;STIFFENER_CREATE;0;START_ANCHOR_ELEM_NUM;1073741824;COMP_NAME;Compo
$nent_2_2;POINTS_NAME;SBPoint;INDEX;1;GENTYPE;0;FLIPPED_ENTRY;0;FLIPPED_EXIT;0;L
$ENGTH_1;160.;LENGTH_2;160.;EL_LENGTH;12.5;EL_OFFSET;5.;NUM_OF_SHELLS;4;EXTEND_S
$BLTS;0;CREATE_TRIAS_AT_END;0;CREATE_TRIAS_AT_START;0;IS_FROZEN;0;IS_MEMBRANE;0;
$STATUS_ERROR;0;PSHELL_NAME;Belt low stretch;PSHELL_ID;99002000;PSBLT_NAME;Belt 
$1-D low stretch;PSBLT_ID;99002010;SBLT_POINTS;3;0;SBPoint_2_0@_1;848.1164;648.8
$779;0.;1;SBPoint_2_1@_1;376.830204723158;410.137237306715;342.280449592325;2;SB
$Point_3_0@_1;192.6;259.4;0.;ENTRY_VEC;0.;0.;0.;EXIT_VEC;0.;0.;0.;SP_ENTITY;1;EP
$_ENTITY;1;START_PART_TYPE;0;END_PART_TYPE;0;MAIN_PART_TYPE_v14;0;CONTAINS;CONST
$RAINED_NODAL_RIGID_BODY(95001960,95001973) ELEMENT_SHELL(95001362-95001369,9500
$1684-95001947) ELEMENT_SEATBELT(95001948-95001959,95001961-95001972) ELEMENT_SE
$ATBELT_SLIPRING(94999999) NODE(95001021-95001041,95001811,95001869-95002216);SB
$LT_PATH;95;1;848.1164;648.8779;0.;-.54774896354729;-.22798964407389;.8049793755
$91655;-.20075903138873;.963831355893928;.175285278079851;-.20075903138873;.9638
$31355893928;.175285278079851;0.;0.;0.;0;1;0;2;841.269537955659;646.028029449076
$;10.0622421948957;-.54816385809156;-.22946719233307;.804231513765564;-.19354398
$854584;0.96433568624905;.180547524835817;-.19354398854584;0.96433568624905;.180
$547524835817;0.;0.;0.;0;1;0;3;834.422675911318;643.178158898153;20.124484389791
$4;-.54857875263584;-.23094474059225;.803483651939473;-.18649150218362;.96461423
$0036171;.186387517889533;-.18649150218362;.964614230036171;.186387517889533;0.;
$0.;0.;0;0;0;4;827.575813866977;640.328288347229;30.1867265846871;-.548993647180
$11;-.23242228885142;.802735790113382;-0.1794233653297;.964811822751397;0.192211
$86917798;-0.1794233653297;.964811822751397;0.19221186917798;0.;0.;0.;0;0;0;5;82
$0.728951822635;637.478417796305;40.2489687795828;-.54940854172439;-0.2338998371
$106;.801987928287291;-.17234017114685;.964928447812614;0.1980200899177;-.172340
$17114685;.964928447812614;0.1980200899177;0.;0.;0.;0;0;0;6;813.882089778294;634
$.628547245381;50.3112109744785;-.54982343626866;-.23537738536978;0.801240066461
$2;-.16524251406148;.964964095432569;.203811692678919;-.16524251406148;.96496409
$5432569;.203811692678919;0.;0.;0.;0;0;0;7;807.035227733953;631.778676694458;60.
$3734531693742;-.55023833081294;-.23685493362895;.800492204635109;-.158130989713
$71;0.96491876261969;.209586191426458;-.15813098971371;0.96491876261969;.2095861
$91426458;0.;0.;0.;0;0;0;8;800.188365689612;628.928806143534;70.4356953642699;-.
$55065322535721;-.23833248188813;.799744342809017;-.15100619490744;.964792453178
$338;.215343101560515;-.15100619490744;.964792453178338;.215343101560515;0.;0.;0
$.;0;0;0;9;793.341503645271;626.07893559261;80.4979375591656;-.55106811990149;-.
$23981003014731;.798996480982926;-0.1438687275602;.964585177708485;.221081939957
$339;-0.1438687275602;.964585177708485;.221081939957339;0.;0.;0.;0;0;0;10;786.49
$464160093;623.229065041687;90.5601797540613;-.55148301444576;-.24128757840648;.
$798248619156835;-.13671918665304;.964296953604826;.226802225009771;-.1367191866
$5304;.964296953604826;.226802225009771;0.;0.;0.;0;0;0;11;779.647779556589;620.3
$79194490763;100.622421948957;-.55189790899004;-.24276512666566;.797500757330744
$;-.12955817218022;.963927805055323;.232503476667658;-.12955817218022;.963927805
$055323;.232503476667658;0.;0.;0.;0;0;0;12;772.800917512247;617.52932393984;110.
$684664143853;-.55231280353431;-.24424267492484;.796752895504653;-.1223862850988
$6;.963477763039168;.238185216478146;-.12238628509886;.963477763039168;.23818521
$6478146;0.;0.;0.;0;0;0;13;765.954055467906;614.679453388916;120.746906338748;-.
$55272769807859;-.24572022318401;.796005033678562;-.11520412727853;.962946865324
$188;.243846967625826;-.11520412727853;.962946865324188;.243846967625826;0.;0.;0
$.;0;0;0;14;759.107193423565;611.829582837992;130.809148533644;-.55314259262286;
$-.24719777144319;.795257171852471;-.10801230145073;.962335156463676;.2494882549
$72753;-.10801230145073;.962335156463676;.249488254972753;0.;0.;0.;0;0;0;15;752.
$260331379224;608.979712287069;140.87139072854;-.55355748716714;-.24867531970237
$;.794509310026379;-.10081141115828;.961642687792648;.255108605098315;-.10081141
$115828;.961642687792648;.255108605098315;0.;0.;0.;0;0;0;16;745.413469334883;606
$.129841736145;150.933632923435;-.55397238171141;-.25015286796154;.7937614482002
$88;-.09360206070473;.960869517423538;.260707546338968;-.09360206070473;.9608695
$17423538;.260707546338968;0.;0.;0.;0;0;0;17;738.566607290542;603.279971185221;1
$60.995875118331;-.55438727625569;-.25163041622072;.793013586374197;-.0863848551
$0358;.960015710241322;.266284608827816;-.08638485510358;.960015710241322;.26628
$4608827816;0.;0.;0.;0;0;0;18;731.719745246201;600.430100634298;171.058117313227
$;-.55480217079996;-0.2531079644799;.792265724548106;-.07916040002757;0.95908133
$789807;0.27183932453404;-.07916040002757;0.95908133789807;0.27183932453404;0.;0
$.;0.;0;0;0;19;724.87288320186;597.580230083374;181.120359508123;-.5552170653442
$4;-.25458551273908;.791517862722015;-0.0719293017578;.958066478806934;0.2773712
$2730218;-0.0719293017578;.958066478806934;0.27737122730218;0.;0.;0.;0;0;0;20;71
$8.026021157519;594.730359532451;191.182601703018;-.55563195988851;-.25606306099
$825;.790770000895924;-.06469216713287;.956971218135569;.282879852891254;-.06469
$216713287;.956971218135569;.282879852891254;0.;0.;0.;0;0;0;21;711.179159113178;
$591.880488981527;201.244843897914;-.55604685443279;-.25754060925743;.7900221390
$69833;-.05744960349797;.955795647798984;.288364739013713;-.05744960349797;.9557
$95647798984;.288364739013713;0.;0.;0.;0;0;0;22;704.332297068837;589.03061843060
$3;211.30708609281;-.55646174897706;-.25901815751661;.789274277243742;-0.0502022
$186539;.954539866451827;.293825425374244;-0.0502022186539;.954539866451827;.293
$825425374244;0.;0.;0.;0;0;0;23;697.485435024495;586.18074787968;221.36932828770
$5;-.55687664352134;-.26049570577578;0.78852641541765;-.04295062080602;0.9532039
$7948011;.299261453708391;-.04295062080602;0.95320397948011;.299261453708391;0.;
$0.;0.;0;0;0;24;690.638572980154;583.330877328756;231.431570482601;-.55729153806
$561;-.26197325403496;.787778553591559;-0.0356954185133;.951788098992362;.304672
$367821018;-0.0356954185133;.951788098992362;.304672367821018;0.;0.;0.;0;0;0;25;
$683.791710935813;580.481006777832;241.493812677497;-.55770643260989;-.263450802
$29414;.787030691765468;-.02843722063716;.950292343810222;0.31005771362459;-.028
$43722063716;.950292343810222;0.31005771362459;0.;0.;0.;0;0;0;26;676.94484889147
$2;577.631136226909;251.556054872393;-.55812132715416;-.26492835055331;.78628282
$9939377;-.02117663629043;.948716839458465;.315417039177283;-.02117663629043;.94
$8716839458465;.315417039177283;0.;0.;0.;0;0;0;27;670.097986847131;574.781265675
$985;261.618297067288;-.55853622169844;-.26640589881249;.785534968113286;-.01391
$427478621;.947061718154472;.320749894720908;-.01391427478621;.947061718154472;.
$320749894720908;0.;0.;0.;0;0;0;28;663.115965006335;571.496545898878;271.4531273
$59788;-.40145628714358;-0.3030430859671;.864290308611887;-.00665046898506;.9453
$27051234051;.326056034244749;-.00665046898506;.945327051234051;.326056034244749
$;0.;0.;0.;0;1;0;29;656.910608995085;567.268349139668;281.455144075914;-0.573781
$7243118;-.38691349562616;.721853502968657;.000727021339188;.901134987420967;.43
$3538009735923;.000727021339188;.901134987420967;.433538009735923;0.;0.;0.;0;1;0
$;30;649.728703429354;562.551038302143;290.564328617673;-.59218588199995;-.39801
$973717858;.700639828996494;-.02672119156108;.866802047199931;.497935928500409;-
$.02672119156108;.866802047199931;.497935928500409;0.;0.;0.;0;1;0;31;642.3339060
$78166;557.298453541875;299.163128604072;-.67014232210705;-.43974839342158;.5979
$38641169904;-.05588879314169;.864278344144285;.499899376519294;-.05588879314169
$;.864278344144285;.499899376519294;0.;0.;0.;0;1;0;32;633.946436779016;551.87027
$2890069;306.682466165749;-.69552255807856;-.48259772758437;.532304240575124;-.1
$0740391711566;.840126269713905;.531650495649926;-.10740391711566;.8401262697139
$05;.531650495649926;0.;0.;0.;0;1;0;33;625.21851081815;546.052752468678;313.5055
$86400915;-.69830836504355;-.48362812262241;.527583977237266;-.11841630231257;.7
$98609960593003;.590084494109326;-.11841630231257;.798609960593003;.590084494109
$326;0.;0.;0.;0;1;0;34;616.545381020791;539.886915399728;320.06688983768;-.70109
$417200853;-.48465851766046;.522863713899408;-.11170573439597;.786469834143124;.
$607443025217958;-.11170573439597;.786469834143124;.607443025217958;0.;0.;0.;0;1
$;0;35;607.871052799339;533.793112583416;326.677461538191;-.70387997897352;-0.48
$56889126985;.518143450561551;-.03871892115836;.777584250190545;.627585515288507
$;-.03871892115836;.777584250190545;.627585515288507;0.;0.;0.;0;1;0;36;599.18011
$9138234;527.738072545553;333.319391663984;-.70666578593851;-.48671930773654;.51
$3423187223693;-.02211078635952;.753233629742046;.657381329330387;-.022110786359
$52;.753233629742046;.657381329330387;0.;0.;0.;0;1;0;37;590.487330690328;521.644
$249673583;339.920282622978;-0.7094515929035;-.48774970277458;.508702923885835;-
$.03370827681272;.746323024377691;0.66472979123705;-.03370827681272;.74632302437
$7691;0.66472979123705;0.;0.;0.;0;1;0;38;581.629673933441;515.649362295819;346.4
$06031742044;-.70268233848265;-.52653988879808;.478532419684458;.042413438685287
$;.654315219806149;.755031584338642;.042413438685287;.654315219806149;.755031584
$338642;0.;0.;0.;0;1;0;39;572.837248809107;508.930376089435;352.229324907086;-.7
$0775521552566;-.53635260646379;.459254589741839;.092343245771783;0.598915899329
$56;.795469968314704;.092343245771783;0.59891589932956;.795469968314704;0.;0.;0.
$;0;1;0;40;564.053719578074;502.348627479459;358.210980153142;-.71282809256868;-
$0.5461653241295;.439976759799219;.133878994383948;.532746161769577;.83561829921
$4735;.133878994383948;.532746161769577;.835618299214735;0.;0.;0.;0;0;0;41;555.2
$37853177972;495.772023567922;364.181602500802;-.73190490331666;-.54845394788727
$;.402134670637536;.174428927518771;.462380717030179;.869355290869797;.174428927
$518771;.462380717030179;.869355290869797;0.;0.;0.;0;1;0;42;546.26345127282;488.
$759357890155;369.385306609406;-.75098171406464;-.55074257164505;.36429258147585
$2;.161014953670387;.343168581684192;0.92536993102185;.161014953670387;.34316858
$1684192;0.92536993102185;0.;0.;0.;0;1;0;43;536.880125083138;481.845534109606;37
$3.958653431234;-.78410800182456;-.53539707952813;.313886299011988;.171260390456
$804;.175956125989552;.969386053328256;.171260390456804;.175956125989552;.969386
$053328256;0.;0.;0.;0;1;0;44;527.052707392445;475.122328401741;377.71960560105;-
$.80847286158151;-.57468237187732;.126932279344746;.249229133815945;.13732483731
$1934;.958658817262223;.249229133815945;.137324837311934;.958658817262223;0.;0.;
$0.;0;1;0;45;516.956872172041;467.921612495934;379.416094093012;-.80904437578932
$;-.58009661329426;.042855768014347;.128091158333708;-.08782193268907;.987866369
$148928;.128091158333708;-.08782193268907;.987866369148928;0.;0.;0.;0;1;0;46;506
$.835906227058;460.749207901687;380.876026942045;-.80961588999713;-.585510854711
$19;-.04122074331605;.214697493606922;-.09546432343675;.972003883320262;.2146974
$93606922;-.09546432343675;.972003883320262;0.;0.;0.;0;1;0;47;496.719810125449;4
$53.401492568991;380.461001691007;-.83922891483039;-.53851287946019;-.0754897818
$7876;.062230119813744;-.25371917403839;.965274050678483;.062230119813744;-.2537
$1917403839;.965274050678483;0.;0.;0.;0;1;0;48;486.222704783128;446.698132091435
$;379.411251351697;-.83870879553387;-.53886761856514;-.07826027173673;.072768817
$602135;-.23821899407047;.968481497009025;.072768817602135;-.23821899407047;.968
$481497009025;0.;0.;0.;0;1;0;49;475.73165277998;439.968981769229;378.45843829942
$;-.83818867623736;-.53922235767009;-0.0810307615947;.058874438359375;-.22613983
$670996;.972314030938905;.058874438359375;-.22613983670996;.972314030938905;0.;0
$.;0.;0;0;0;50;465.241291344601;433.237570775976;377.514816025935;-.837668556940
$85;-.53957709677503;-.08380125145267;.044959304621576;-0.2139807635337;0.975802
$69202615;.044959304621576;-0.2139807635337;0.97580269202615;0.;0.;0.;0;0;0;51;4
$54.750929909221;426.506159782724;376.57119375245;-.83714843764434;-.53993183587
$998;-.08657174131064;.031028271261121;-.20174601718089;.978946265601026;.031028
$271261121;-.20174601718089;.978946265601026;0.;0.;0.;0;0;0;52;444.260568473841;
$419.774748789471;375.627571478966;-.83662831834782;-.54028657498493;-0.08934223
$11686;.017086264915011;-.18943992440553;.981743639955199;.017086264915011;-.189
$43992440553;.981743639955199;0.;0.;0.;0;0;0;53;433.770207038461;413.04333779621
$9;374.683949205481;-.83610819905131;-.54064131408987;-.09211272102657;.00313821
$6100783;-.17706683719287;.984193825811876;.003138216100783;-.17706683719287;.98
$4193825811876;0.;0.;0.;0;0;0;54;423.279845603081;406.311926802966;373.740326931
$997;-0.8355880797548;-.54099605319482;-.09488321088454;-.01081094252714;-.16463
$113122044;0.98629595667566;-.01081094252714;-.16463113122044;0.98629595667566;0
$.;0.;0.;0;0;0;55;412.789484167702;399.580515809714;372.796704658512;-.835067960
$45829;-.54135079229976;-.09765370074251;-.02475627792184;-.15213720431051;.9880
$49289138977;-.02475627792184;-.15213720431051;.988049289138977;0.;0.;0.;0;0;0;5
$6;402.299122732322;392.849104816462;371.853082385028;-.83454784116178;-.5417055
$3140471;-.10042419060047;-.03869285838849;-.13958947487493;.989453203144984;-.0
$3869285838849;-.13958947487493;.989453203144984;0.;0.;0.;0;0;0;57;391.861004442
$958;386.06265280321;370.71581444868;-.83863833147698;-.53462124624451;-.1042394
$9367431;-.05261814273467;-.12699021498773;.990507353002755;-.05261814273467;-.1
$2699021498773;.990507353002755;0.;0.;0.;0;1;0;58;381.383658484995;379.393303064
$817;369.307770772382;-.82081193698509;-0.5304771383242;-.21180597210221;-.04858
$470014189;-.13094150552955;.990198893678325;-.04858470014189;-.13094150552955;.
$990198893678325;0.;0.;0.;0;1;0;59;371.103960607018;372.733001433898;366.7965424
$84538;-0.8208873863862;-.52340313873378;-.22778842645265;-.13119939084216;-.201
$84148067878;.970590921305183;-.13119939084216;-.20184148067878;.970590921305183
$;0.;0.;0.;0;1;0;60;360.858473525786;366.125036826094;364.040664903834;-.8209628
$3578732;-.51632913914336;-.24377088080309;-.13097112767729;-.19098834009546;.97
$2815510599271;-.13097112767729;-.19098834009546;.972815510599271;0.;0.;0.;0;1;0
$;61;350.597644344382;359.676118014164;360.967448571904;-.76782607944025;-.51388
$798247251;-.38257319979548;-.27291999820444;-0.1807547940881;.944903370188855;-
$.27291999820444;-0.1807547940881;.944903370188855;0.;0.;0.;0;1;0;62;340.9413271
$56309;353.202026430878;356.347878846821;-.75111175705072;-.49133404006783;-.440
$93308958481;-.32088344054248;-.27256657733715;.907050868752316;-.32088344054248
$;-.27256657733715;.907050868752316;0.;0.;0.;0;1;0;63;331.519461912995;347.03046
$8650266;350.892766011732;-.72073359019374;-0.4887786423179;-.49156742241559;-.3
$5969534210666;-.31258801497538;.879151860465823;-.35969534210666;-.312588014975
$38;.879151860465823;0.;0.;0.;0;1;0;64;322.388472612669;340.818775843224;344.983
$122054552;-.70592168718149;-.45329779354727;-.53758996214977;-.39618954722409;-
$.33719159046111;.854011518653397;-.39618954722409;-.33719159046111;.85401151865
$3397;0.;0.;0.;0;1;0;65;313.596898991388;334.894236058747;338.369486841356;-.691
$10978416923;-.41781694477664;-.58361250188396;-.40958699768544;-.40193918992125
$;.818952610919876;-.40958699768544;-.40193918992125;.818952610919876;0.;0.;0.;0
$;0;0;66;304.587729113966;328.784503029774;332.224894061161;-.67629788115697;-.3
$8233609600601;-.62963504161814;-0.4206941542625;-.46445870072489;0.779291052104
$61;-0.4206941542625;-.46445870072489;0.77929105210461;0.;0.;0.;0;0;0;67;295.217
$907786257;322.884663153113;325.920498026758;-.66481840370034;-.38538888754167;-
$.63954157092198;-.42958877619363;-.52550479945296;.734369245761536;-.4295887761
$9363;-.52550479945296;.734369245761536;0.;0.;0.;0;1;0;68;286.727902872444;318.4
$22443419962;317.590753170341;-0.6533389262437;-.38844167907734;-.64944810022582
$;-0.5714299972848;-.48219640985434;.664043959784801;-0.5714299972848;-.48219640
$985434;.664043959784801;0.;0.;0.;0;1;0;69;279.155246744267;314.422719389902;308
$.67100866525;-.64185944878707;-.39149447061301;-.65935462952966;-.7530282672286
$4;-.25533287110869;.606426874145621;-.75302826722864;-.25533287110869;.60642687
$4145621;0.;0.;0.;0;1;0;70;271.05460029782;309.511318362449;300.516537992905;-.5
$7538611723947;-.34855753206957;-.73989084527764;-.70210248568725;-.197815898969
$64;.684047490826931;-.70210248568725;-.19781589896964;.684047490826931;0.;0.;0.
$;0;1;0;71;263.878727065566;305.155583326236;291.224812344227;-0.4482374447727;-
$.28737536585661;-.84646239857564;-.76992372957024;-.23672550511682;0.5926031436
$5673;-.76992372957024;-.23672550511682;0.59260314365673;0.;0.;0.;0;1;0;72;257.3
$88315160762;301.291329923999;280.993881798603;-.36744213653231;-.24208875569235
$;-.89798625305062;-.88037071179281;-0.2699955707654;.389935637746143;-.88037071
$179281;-0.2699955707654;.389935637746143;0.;0.;0.;0;1;0;73;253.594378675128;298
$.495681784037;269.400485559836;-.21944657172053;-.14044706622734;-.965462492149
$87;-.88358278195541;-.32948222244929;.332750556005263;-.88358278195541;-.329482
$22244929;.332750556005263;0.;0.;0.;0;1;0;74;251.032216241283;296.796953982498;2
$57.074479094588;-.21934993225682;-.14091614759688;-.96541357946585;-.8707436768
$6325;-.34805954454492;.347361487004319;-.87074367686325;-.34805954454492;.34736
$1487004319;0.;0.;0.;0;1;0;75;248.24943825363;295.015960088341;244.831554769115;
$-.21925329279312;-.14138522896642;-.96536466678182;-.87195484245895;-.347426582
$42903;.344948579550743;-.87195484245895;-.34742658242903;.344948579550743;0.;0.
$;0.;0;0;0;76;245.466660265977;293.234966194185;232.588630443642;-.2191566533294
$1;-.14185431033596;-0.9653157540978;-.87315930299612;-.34679094871198;.34253301
$9551071;-.87315930299612;-.34679094871198;.342533019551071;0.;0.;0.;0;0;0;77;24
$2.683882278325;291.453972300028;220.34570611817;-0.2190600138657;-0.14232339170
$55;-.96526684141377;-.87435704921284;-0.3461526482816;.340114825580198;-.874357
$04921284;-0.3461526482816;.340114825580198;0.;0.;0.;0;0;0;78;239.901104290672;2
$89.672978405872;208.102781792697;-.21896337440199;-.14279247307505;-.9652179287
$2974;-.87554807189882;-.34551168604621;.337694016233276;-.87554807189882;-.3455
$1168604621;.337694016233276;0.;0.;0.;0;0;0;79;237.11832630302;287.891984511716;
$195.859857467224;-.21886673493828;-.14326155444459;-.96516901604572;-.876732361
$89548;-0.3448680669346;.335270610125567;-.87673236189548;-0.3448680669346;.3352
$70610125567;0.;0.;0.;0;0;0;80;234.335548315367;286.110990617559;183.61693314175
$1;-.21877009547457;-.14373063581413;-.96512010336169;-.87790991009598;-.3442217
$9589602;.332844625892302;-.87790991009598;-.34422179589602;.332844625892302;0.;
$0.;0.;0;0;0;81;231.552770327714;284.329996723403;171.374008816278;-.21867345601
$087;-.14419971718367;-.96507119067767;-.87908070744536;-.34357287790008;.330416
$082188537;-.87908070744536;-.34357287790008;.330416082188537;0.;0.;0.;0;0;0;82;
$228.769992340062;282.549002829246;159.131084490805;-.21857681654716;-.144668798
$55321;-.96502227799364;-.88024474494055;-.34292131793676;.327984997689009;-.880
$24474494055;-.34292131793676;.327984997689009;0.;0.;0.;0;0;0;83;225.98721435240
$9;280.76800893509;146.888160165332;-.21848017708345;-.14513787992275;-.96497336
$ ... 11 like lines cut
$20540092;-.96477771457352;-.88596322313902;-.33962406467845;.315792118230336;-.
$88596322313902;-.33962406467845;.315792118230336;0.;0.;0.;0;0;0;88;212.07332441
$4146;271.863039464308;85.673538537968;-.21799697976491;-.14748328677046;-.96472
$880188949;-0.8870865153605;-.33895675883529;.313346182209769;-0.8870865153605;-
$.33895675883529;.313346182209769;0.;0.;0.;0;0;0;89;209.290546426493;270.0820455
$70151;73.4306142124951;-0.2179003403012;-0.14795236814;-.96467988920547;-.88820
$298616565;-.33828684652124;.310897836655602;-.88820298616565;-.33828684652124;.
$310897836655602;0.;0.;0.;0;0;0;90;206.50776843884;268.301051675995;61.187689887
$0222;-.21780370083749;-.14842144950954;-.96463097652144;-.88931262696916;-.3376
$1433288774;.308447100394842;-.88931262696916;-.33761433288774;.308447100394842;
$0.;0.;0.;0;0;0;91;203.724990451188;266.520057781838;48.9447655615494;-.21770706
$137378;-.14889053087908;-.96458206383742;-.89041542923823;-.33693922310618;0.30
$599399227288;-.89041542923823;-.33693922310618;0.30599399227288;0.;0.;0.;0;0;0;
$92;200.942212463535;264.739063887682;36.7018412360765;-.21761042191007;-.149359
$61224862;-.96453315115339;-.89151138449268;-.33626152236796;.303538531153347;-.
$89151138449268;-.33626152236796;.303538531153347;0.;0.;0.;0;0;0;93;198.15943447
$5882;262.958069993525;24.4589169106036;-.21751378244637;-.14982869361817;-.9644
$8423846937;-.89260048430494;-.33558123588438;.301080735917966;-.89260048430494;
$-.33558123588438;.301080735917966;0.;0.;0.;0;0;0;94;195.37665648823;261.1770760
$99369;12.2159925851308;-.21741714298266;-.15029777498771;-.96443532578534;-.893
$68272030018;-.33489836888662;0.29862062546641;-.89368272030018;-.33489836888662
$;0.29862062546641;0.;0.;0.;0;0;0;95;192.6;259.4;0.;-.21732050351895;-.150766856
$35725;-.96438641310132;-.89475572614043;-.33421443727036;.296163637975639;-.894
$75572614043;-.33421443727036;.296163637975639;0.;0.;0.;0;1;0;SBLT_NODE_IDS;3;95
$001792;95001201;95001790;SBLT_POINTS_TYPES;3;0;0;0;SBLT_POINTS_ENTITY_TYPE;3;0;
$0;0;STIFFENER_CREATE;0;COMP_NAME;Component_3_3;POINTS_NAME;SBPoint;INDEX;2;GENT
$YPE;1;FLIPPED_ENTRY;0;FLIPPED_EXIT;0;LENGTH_1;100.;LENGTH_2;100.;EL_LENGTH;12.5
$;EL_OFFSET;5.;NUM_OF_SHELLS;4;EXTEND_SBLTS;0;CREATE_TRIAS_AT_END;0;CREATE_TRIAS
$_AT_START;0;IS_FROZEN;0;IS_MEMBRANE;0;STATUS_ERROR;0;PSBLT_NAME;Belt 1-D low st
$retch;PSBLT_ID;99002010;SBLT_POINTS;2;0;SBPoint_3_0@_1;192.6;259.4;0.;1;SBPoint
$_3_1@_1;192.6;259.4;-200.;ENTRY_VEC;0.;0.;0.;EXIT_VEC;0.;0.;0.;SP_ENTITY;1;EP_E
$NTITY;0;START_PART_TYPE;0;END_PART_TYPE;0;MAIN_PART_TYPE_v14;0;CONTAINS;ELEMENT
$_SEATBELT(95001622-95001637) NODE(95001795-95001810);SBLT_NODE_IDS;2;95001790;9
$5001405;SBLT_POINTS_TYPES;2;0;0;SBLT_POINTS_ENTITY_TYPE;2;0;0;STIFFENER_CREATE;
$0;
$ANSA_NAME_COMMENT;90000001;ELEMENT_SEATBELT_SENSOR;Time_Sensor;;NO;NO;NO;
$ANSA_NAME_COMMENT;90000002;ELEMENT_SEATBELT_SENSOR;Time_Sensor lock;;NO;NO;NO;
$ANSA_NAME_COMMENT;95001228;NODE;SBPoint_2_1@_1;;NO;NO;NO;
$ANSA_NAME_COMMENT;95001401;NODE;SBPoint_1_0;;NO;NO;NO;
$ANSA_NAME_COMMENT;95001404;NODE;SBPoint_2_0;;NO;NO;NO;
$ANSA_NAME_COMMENT;95001405;NODE;SBPoint_3_1@_1;;NO;NO;NO;
$ANSA_NAME_COMMENT;95001406;NODE;SBPoint_3_1;;NO;NO;NO;
$ANSA_NAME_COMMENT;95001409;NODE;SBPoint_1_0@_1;;NO;NO;NO;
$ANSA_NAME_COMMENT;95001411;NODE;SBPoint_3_0;;NO;NO;NO;
$ANSA_NAME_COMMENT;95001790;NODE;SBPoint_3_0@_1;;NO;NO;NO;
$ANSA_NAME_COMMENT;95001792;NODE;SBPoint_2_0@_1;;NO;NO;NO;
$ANSA_NAME_COMMENT;1;SEATBELT;Default Seatbelt Entity;;NO;NO;NO;
$ANSA_NAME_COMMENT;2;SEATBELT;Default Seatbelt Entity@_1;;NO;NO;NO;
$ANSA_USER_ATTRIBUTES;SECTION_SHELL;User/cad_material;TEXT;RW;YES;;;
$ANSA_USER_ATTRIBUTES;SECTION_SHELL;User/cad_thickness;TEXT;RW;YES;;;
$ANSA_PART;PART;ID;1276;NAME;Default Seatbelt Part;BELONGS_HERE;YES;STUDY_VERSIO
$N;0;PID_OFFSET;0;COLOR;221;39;134;0;IS_COLOR_ACTIVE;1;PART_TYPE;Undefined;ATTRI
$BUTES;2;DM/File Type;ANSA;DM/Status;WIP;CONTAINS;CONSTRAINED_NODAL_RIGID_BODY;3
$19,95001683,95001960,95001973;ELEMENT_SEATBELT_SLIPRING;94999999-95000002;SEATB
$ELT;1-2;SECTION_DISCRETE;99002020;SECTION_SEATBELT;99002010;SECTION_SHELL;99002
$000;
$ANSA_PART;PART;ID;2199;NAME;Untitled;STUDY_VERSION;0;PID_OFFSET;0;COLOR;207;32;
$155;0;IS_COLOR_ACTIVE;1;PART_TYPE;Undefined;ATTRIBUTES;2;DM/File Type;ANSA;DM/S
$tatus;WIP;CONTAINS;ELEMENT_SEATBELT_PRETENSIONER;1-4;ELEMENT_SEATBELT_RETRACTOR
$;90000001-90000004;ELEMENT_SEATBELT_SENSOR;90000001-90000002;SECTION_BEAM_ELFOR
$M_1;99001000,99001010;SECTION_SHELL;90000170;
*END
