$
$ANSA_VERSION;22.1.0;
$
$
$ file created by  A N S A  Fri Nov 24 15:42:15 2023
$
$ output from :
$
$ C:/Users/seyedri/OneDrive - Chalmers/Desktop/SAFER HBM Validation/Duma_1999_up
$ per_arm/dyna/setup.k
$
$ Settings :
$
$ Output format : R13
$
$ Output : All
$
$
$
$
*KEYWORD
*NODE
 1011384166.438338361356125.03658732255747.6667234173809       0       0
 1011385166.438676996032121.18933262210247.6667174423381       0       0
 1011386166.439015630707117.34207792164747.6667114672952       0       0
 1011387166.439354265383113.49482322119247.6667054922524       0       0
 1011388166.439692900058109.64756852073647.6666995172096       0       0
 1011389166.440031534734105.80031382028147.6666935421667       0       0
 1011390 166.44037016941101.95305911982647.6666875671239       0       0
 1011391166.44070880408598.1058044193703 47.666681592081       0       0
 1011392166.441047438761 94.25854971891547.6666756170382       0       0
 1011393166.44138607343690.411295018459747.6666696419953       0       0
 1011394166.44172470811286.564040318004447.6666636669525       0       0
 1011395166.44206334278782.716785617549147.6666576919097       0       0
 1011396166.44240197746378.869530917093947.6666517168668       0       0
 1011397166.44274061213875.0222762166385 47.666645741824       0       0
 1011398166.44307924681471.175021516183247.6666397667812       0       0
 1011399 166.44341788149 67.32776681572847.6666337917383       0       0
 1011400166.44375651616563.480512115272747.6666278166955       0       0
 1011401166.44409515084159.633257414817447.6666218416526       0       0
 1011402166.44443378551655.786002714362147.6666158666098       0       0
 1011403166.44477242019251.9387480139068 47.666609891567       0       0
$ ... 10092 like lines cut
*ELEMENT_SHELL
 7578460       3 6840850 6840668 6840669 6840851
 7578461       3 6840851 6840669 6840670 6840852
 7578462       3 6840852 6840670 6840671 6840853
 7578463       3 6840853 6840671 6840672 6840854
 7578464       3 6840854 6840672 6840673 6840855
 7578465       3 6840855 6840673 6840674 6840856
 7578466       3 6840856 6840674 6840675 6840857
 7578467       3 6840857 6840675 6840676 6840858
 7578468       3 6840858 6840676 6840677 6840859
 7578469       3 6840859 6840677 6840678 6840860
 7578470       3 6840860 6840678 6840679 6840861
 7578471       3 6840861 6840679 6840680 6840862
 7578472       3 6841032 6840850 6840851 6841033
 7578473       3 6841033 6840851 6840852 6841034
 7578474       3 6841034 6840852 6840853 6841035
 7578475       3 6841035 6840853 6840854 6841036
 7578476       3 6841036 6840854 6840855 6841037
 7578477       3 6841037 6840855 6840856 6841038
 7578478       3 6841038 6840856 6840857 6841039
 7578479       3 6841039 6840857 6840858 6841040
$ ... 1228 like lines cut
*ELEMENT_SOLID
 1024235       5
 1011384 1011780 1011846 1011450 1011385 1011781 1011847 1011451       0       0
 1024236       5
 1011385 1011781 1011847 1011451 1011386 1011782 1011848 1011452       0       0
 1024237       5
 1011386 1011782 1011848 1011452 1011387 1011783 1011849 1011453       0       0
 1024238       5
 1011387 1011783 1011849 1011453 1011388 1011784 1011850 1011454       0       0
 1024239       5
 1011388 1011784 1011850 1011454 1011389 1011785 1011851 1011455       0       0
 1024240       5
 1011389 1011785 1011851 1011455 1011390 1011786 1011852 1011456       0       0
 1024241       5
 1011390 1011786 1011852 1011456 1011391 1011787 1011853 1011457       0       0
 1024242       5
 1011391 1011787 1011853 1011457 1011392 1011788 1011854 1011458       0       0
 1024243       5
 1011392 1011788 1011854 1011458 1011393 1011789 1011855 1011459       0       0
 1024244       5
 1011393 1011789 1011855 1011459 1011394 1011790 1011856 1011460       0       0
$ ... 16542 like lines cut
*PART
proximal_potting
         1         1         1                             0         0          
*SECTION_SOLID_TITLE
proximal_potting
         1         1
*PART
distal_potting
         2         2         2                             0         0          
*SECTION_SOLID_TITLE
distal_potting
         2         1
*PART
proximal_fixture
         3         3         3                             0         0          
*SECTION_SHELL_TITLE
proximal_fixture
         3         2        1.        2.        1.         0         0
        1.        1.        1.        1.                            0.          
*PART
distal_fixture
         4         4         4                             0         0          
*SECTION_SHELL_TITLE
distal_fixture
         4         2        1.        2.        1.         0         0
        1.        1.        1.        1.                            0.          
*PART
impactor
         5         5         5                             0         0          
*SECTION_SOLID_TITLE
impactor
         5         1
$ANSA_ID;1;
*LOAD_BODY_Z
         2  -0.00981         0                                        
*INITIAL_VELOCITY_GENERATION
$ANSA_ID;1;
         5         2        0.        0.        0.     -3.63         0         0
      100.-2.3989E-722.9913136        0.        0.        0.         0         0
*MAT_ELASTIC_TITLE
proximal_potting_epoxy
         1   1.35E-6      35.2     0.389        0.        0.        0.
*MAT_ELASTIC_TITLE
distal_potting_epoxy
         2   1.35E-6      35.2     0.389        0.        0.        0.
*MAT_RIGID_TITLE
proximal_fixture_steel
         3   7.85E-6      210.       0.3        0.        0.        0.
       1.0        7.        6.
        0.        0.        0.        0.        0.        0.
*MAT_RIGID_TITLE
distal_fixture_steel
         4   7.85E-6      210.       0.3        0.        0.        0.
       1.0        5.        6.
        0.        0.        0.        0.        0.        0.
*MAT_RIGID_TITLE
impactor_steel_9.48kg
         57.85132E-5      210.       0.3        0.        0.        0.
       1.0        4.        7.
        0.        0.        0.        0.        0.        0.
*DEFINE_CURVE_TITLE
Gravitation
         2         0        1.        1.        0.        0.         0         0
                  0.                  1.
               5000.                  1.
*SET_NODE_TITLE
right_support_set
        98                                        
   6844011   6844012   6844013   6844014   6844015   6844016   6844017   6844018
   6844019   6844020   6844021   6844022   6844023   6844024   6844025   6844026
   6844027   6844028   6844029   6844030   6844031   6844032   6844033   6844034
   6844035   6844036   6844037   6844038   6844039   6844040   6844041   6844042
   6844043   6844044   6844045   6844046   6844047   6844048   6844049   6844050
   6844051   6844052   6844053   6844054   6844055   6844056   6844057   6844058
   6844059   6844060   6844061   6844062   6844063   6844064   6844065   6844066
   6844067   6844068   6844069   6844070   6844071   6844072   6844073   6844074
   6844075   6844076   6844077   6844078   6844079   6844080   6844081   6844082
   6844083   6844084   6844085   6844086   6844087   6844088   6844089   6844090
   6844091   6844092   6844093   6844094   6844095   6844096   6844097   6844098
   6844099   6844100   6844101   6844102   6844103   6844104   6844105   6844106
   6844107   6844108   6844109   6844110   6844111   6844112   6844113   6844114
   6844115   6844116   6844117   6844118   6844119   6844120   6844121   6844122
   6844123   6844124   6844125   6844126   6844127   6844128   6844129   6844130
   6844131   6844132   6844133   6844134   6844135   6844136   6844137   6844138
   6844139   6844140   6844141   6844142   6844143   6844144   6844145   6844146
   6844147   6844148   6844149   6844150   6844151   6844152   6844153   6844154
   6844155   6844156   6844157   6844158   6844159   6844160   6844161   6844162
$ ... 300 like lines cut
*SET_NODE_TITLE
impactor_set
        99                                        
   1011384   1011385   1011386   1011387   1011388   1011389   1011390   1011391
   1011392   1011393   1011394   1011395   1011396   1011397   1011398   1011399
   1011400   1011401   1011402   1011403   1011404   1011405   1011406   1011407
   1011408   1011409   1011410   1011411   1011412   1011413   1011414   1011415
   1011416   1011417   1011418   1011419   1011420   1011421   1011422   1011423
   1011424   1011425   1011426   1011427   1011428   1011429   1011430   1011431
   1011432   1011433   1011434   1011435   1011436   1011437   1011438   1011439
   1011440   1011441   1011442   1011443   1011444   1011445   1011446   1011447
   1011448   1011449   1011450   1011451   1011452   1011453   1011454   1011455
   1011456   1011457   1011458   1011459   1011460   1011461   1011462   1011463
   1011464   1011465   1011466   1011467   1011468   1011469   1011470   1011471
   1011472   1011473   1011474   1011475   1011476   1011477   1011478   1011479
   1011480   1011481   1011482   1011483   1011484   1011485   1011486   1011487
   1011488   1011489   1011490   1011491   1011492   1011493   1011494   1011495
   1011496   1011497   1011498   1011499   1011500   1011501   1011502   1011503
   1011504   1011505   1011506   1011507   1011508   1011509   1011510   1011511
   1011512   1011513   1011514   1011515   1011516   1011517   1011518   1011519
   1011520   1011521   1011522   1011523   1011524   1011525   1011526   1011527
   1011528   1011529   1011530   1011531   1011532   1011533   1011534   1011535
$ ... 608 like lines cut
*NODE_TRANSFORM
         3        99
*DEFINE_TRANSFORMATION_TITLE
Default *DEFINE_TRANSFORMATION
         3
TRANSL            0.        0.       40.
*NODE_TRANSFORM
         4        98
*DEFINE_TRANSFORMATION_TITLE
Default *DEFINE_TRANSFORMATION
         4
TRANSL          -10.        0.        0.
$ANSA_COLOR;1;SECTION_SOLID;.952941179275513;.874509811401367;.105882354080677;1
$.;
$ANSA_COLOR;2;SECTION_SOLID;.960784316062927;0.74117648601532;.023529412224889;1
$.;
$ANSA_COLOR;3;SECTION_SHELL;.972549021244049;.607843160629272;.945098042488098;1
$.;
$ANSA_COLOR;4;SECTION_SHELL;.980392158031464;.474509805440903;.862745106220245;1
$.;
$ANSA_COLOR;5;SECTION_SOLID;.988235294818878;.341176480054855;.780392169952393;1
$.;
$ANSA_COLOR;1;MAT1 MAT_ELASTIC;0.5686274766922;.407843142747879;0.5686274766922;
$1.;
$ANSA_COLOR;2;MAT1 MAT_ELASTIC;.576470613479614;.274509817361832;.48627451062202
$5;1.;
$ANSA_COLOR;3;MAT20 MAT_RIGID;.588235318660736;.141176477074623;.407843142747879
$;1.;
$ANSA_COLOR;4;MAT20 MAT_RIGID;.596078455448151;.007843137718737;.325490206480026
$;1.;
$ANSA_COLOR;5;MAT20 MAT_RIGID;.603921592235565;.874509811401367;.243137255311012
$;1.;
$ANSA_USER_ATTRIBUTES;SECTION_SHELL;User/cad_material;TEXT;RW;YES;;;
$ANSA_USER_ATTRIBUTES;SECTION_SHELL;User/cad_thickness;TEXT;RW;YES;;;
$ANSA_USER_ATTRIBUTES;SECTION_SOLID;User/cad_material;TEXT;RW;YES;;;
$ANSA_PART;GROUP;ID;1;NAME;setup.k;BELONGS_HERE;YES;PID_OFFSET;0;COLOR;201;236;1
$18;0;IS_COLOR_ACTIVE;-1;PART_TYPE;Undefined;ATTRIBUTES;2;DM/File Type;ANSA;DM/S
$tatus;WIP;CONTAINS;ANSAPART;3-7;
$ANSA_PART;PART;ID;3;MID;3;NAME;proximal_fixture;BELONGS_HERE;YES;STUDY_VERSION;
$0;PID_OFFSET;0;COLOR;206;168;77;0;IS_COLOR_ACTIVE;-1;PART_TYPE;Undefined;ATTRIB
$UTES;2;DM/File Type;ANSA;DM/Status;WIP;CONTAINS;SECTION_SHELL;3;
$ANSA_PART;PART;ID;4;MID;4;NAME;distal_fixture;BELONGS_HERE;YES;STUDY_VERSION;0;
$PID_OFFSET;0;COLOR;208;134;56;0;IS_COLOR_ACTIVE;-1;PART_TYPE;Undefined;ATTRIBUT
$ES;2;DM/File Type;ANSA;DM/Status;WIP;CONTAINS;SECTION_SHELL;4;
$ANSA_PART;PART;ID;5;MID;5;NAME;impactor;BELONGS_HERE;YES;STUDY_VERSION;0;PID_OF
$FSET;0;COLOR;210;100;35;0;IS_COLOR_ACTIVE;-1;PART_TYPE;Undefined;ATTRIBUTES;2;D
$M/File Type;ANSA;DM/Status;WIP;CONTAINS;SECTION_SOLID;5;
$ANSA_PART;PART;ID;6;MID;1;NAME;proximal_potting;BELONGS_HERE;YES;STUDY_VERSION;
$0;PID_OFFSET;0;COLOR;212;66;15;0;IS_COLOR_ACTIVE;-1;PART_TYPE;Undefined;ATTRIBU
$TES;2;DM/File Type;ANSA;DM/Status;WIP;CONTAINS;SECTION_SOLID;1;
$ANSA_PART;PART;ID;7;MID;2;NAME;distal_potting;BELONGS_HERE;YES;STUDY_VERSION;0;
$PID_OFFSET;0;COLOR;215;32;249;0;IS_COLOR_ACTIVE;-1;PART_TYPE;Undefined;ATTRIBUT
$ES;2;DM/File Type;ANSA;DM/Status;WIP;CONTAINS;SECTION_SOLID;2;
*END
