*KEYWORD
*NODE
       1              0.              0.              0.       0       0
       5 26.879393450674-73.624512483209-19.210601822184       0       0
       64.7330730555749858.4822789285893 -42.86354536305       0       0
       7              0. 38.07745268438235.9736781549685       0       0
       8 49.999996916157-76.0833447310341.79114713986831       0       0
      111.1679826357070153.023124868811140.5663300283107       0       0
      12.63110424839598546.450801639003945.1121103133273       0       0
      13-2.842170943E-1446.312244401254740.7479703016306       0       0
      14.69625236921402255.468011545309533.5579475593474       0       0
      16 16.00507261829862.362988792397243.5510708975082       0       0
      171.623319233564023.98911455972623-68.548020630707       0       0
      18 23.228420502058-56.200767124278 51.230331993739       0       0
      192.00171350298598 -5.199343805164-68.948771849503       0       0
      20              0.46.587938709666436.5377553645409       0       0
      21 49.99991357539611.230062981208775.2250753679091       0       0
      22 45.30385099453911.233306873119875.2245772299879       0       0
      23 40.59366093464411.253419726099275.2209119036754       0       0
      24.91340698733898854.107374730649637.6093635614816       0       0
      25              0.50.533328874342236.9371710924075       0       0
      26-2.842170943E-14 -21.16675870933-55.870077811438       0       0
$ ... 1749 like lines cut
*ELEMENT_BEAM
    1750       2   10000   10001   10002                                        
    1751       2   10000   10002   10001                                        
    1752       2   10000   10004   10001                                        
*ELEMENT_MASS
    1749       1         23.0859
    1753   10000            0.01
*ELEMENT_SHELL
       1       1    1021      12      13      31
       4       1     218     217       8      68
       5       1    1567    1021     538    3171
       6       1      42    1864    1863      19
       8       1    1513    1594    1586    1494
       9       1     124      24      14     386
      10       1      31      13      20      25
      11       1      56     380    2979     101
      12       1     219     218      68     115
      14       1      11      31      25      24
      15       1    1686    1056      84    1716
      16       1     557     934     920     876
      17       1     254    1699     876     270
      18       1     254     270     285     785
      19       1     785     285     289     752
      20       1     540       7      32    1149
      22       1    1206    1649    1693    1691
      24       1      28     178    1482     113
      25       1      25      20     369     560
      26       1    1342    1474     457      57
$ ... 1694 like lines cut
*ELEMENT_SEATBELT_ACCELEROMETER
         1     10000     10001     10002         0         0        0.
*CONSTRAINED_RIGID_BODIES
         1         2         0
*PART
Impactor
         1         1         1                             0         0          
*SECTION_SHELL_TITLE
Impactor
         1         2        0.        0.        1.         0         0
        1.        1.        1.        1.        0.                  0.          
*PART
ImpactorA
         2         2         2                             0                    
*SECTION_BEAM_TITLE
ImpactorA
         2         2        0.         2        0.                  0.
     1.E-6    1.E-12    1.E-12    1.E-12     1.E-6        0.
*DEFINE_COORDINATE_NODES_TITLE
Impactor_CSYS
         1     10000     10001     10002         0X         
*MAT_RIGID_TITLE
Rigid_Impactor
         1    7.8E-6      210.       0.3        0.        0.        0.          
      -1.0         1    011111
         1
*MAT_RIGID_TITLE
Rigid_Beams
         2     0.182        5.       0.3        0.        0.        0.          
       0.0                    
        0.        0.        0.        0.        0.        0.
*DATABASE_HISTORY_NODE_ID
     10000IMPACTOR                                                              
*END
