$
$ANSA_VERSION;22.1.0;
$
$
$ file created by  A N S A  Thu Nov 24 11:58:35 2022
$
$ output from :
$
$ C:/Work/SOT/SAFER_HBM_validation/Kindig_2009_isolated_rib_AP_bending/dyna_kind
$ ig_setups/trs/Untitled
$
$ Settings :
$
$ Output format : R11.1
$
$ Output : All
$
$ANSA_USER_ATTRIBUTES;anterior_potting.k;INCLUDE;DM/Status;TEXT;WIP;
$
$
$
$
$
$
$ANSA_COLOR;anterior_potting.k;INCLUDE;.925490200519562;.215686276555061;.549019
$634723663;1.;
*KEYWORD
*NODE
     243-503.39814563444-20.033052073599   30.5870209825       0       0
     244-503.39814563444-25.041315091999   30.5870209825       0       0
     245-500.97884354277-25.041315091999  26.22248447471       0       0
     246-500.97884354277-20.033052073599  26.22248447471       0       0
     247 -505.8174477261-20.033052073599  34.95155749028       0       0
     248 -505.8174477261-25.041315091999  34.95155749028       0       0
     249-503.39814563444-15.024789055199   30.5870209825       0       0
     250-500.97884354277-15.024789055199  26.22248447471       0       0
     251-508.23674981776-20.033052073599  39.31609399807       0       0
     252-508.23674981776-25.041315091999  39.31609399807       0       0
     253 -505.8174477261-15.024789055199  34.95155749028       0       0
     254-503.39814563444  -10.0165260368   30.5870209825       0       0
     255-500.97884354277  -10.0165260368  26.22248447471       0       0
     256-510.65605190942-20.033052073599  43.68063050586       0       0
     257-510.65605190942-25.041315091999  43.68063050586       0       0
     258-508.23674981776-15.024789055199  39.31609399807       0       0
     259 -505.8174477261  -10.0165260368  34.95155749028       0       0
     260-503.39814563444-5.0082630183998   30.5870209825       0       0
     261-500.97884354277-5.0082630183998  26.22248447471       0       0
     262-513.07535400108-20.033052073599  48.04516701364       0       0
$ ... 1776 like lines cut
*CONSTRAINED_JOINT_REVOLUTE_ID
      2882                                                                      
      3588      3589      3587      3590                            0.        0.
*CONSTRAINED_NODAL_RIGID_BODY
      2881                  31                   0         0         0
*ELEMENT_SOLID
     497      30
    1695    1698    1697    1696    1946    1909    1910    1911       0       0
     498      30
    1946    1909    1910    1911    1883    1846    1847    1848       0       0
     499      30
    1699    1700    1698    1695    1945    1908    1909    1946       0       0
     500      30
    1945    1908    1909    1946    1882    1845    1846    1883       0       0
     501      30
    1701    1695    1696    1702    1944    1946    1911    1907       0       0
     502      30
    1944    1946    1911    1907    1881    1883    1848    1844       0       0
     503      30
    1703    1704    1700    1699    1943    1906    1908    1945       0       0
     504      30
    1943    1906    1908    1945    1880    1843    1845    1882       0       0
     505      30
    1705    1699    1695    1701    1942    1945    1946    1944       0       0
     506      30
    1942    1945    1946    1944    1879    1882    1883    1881       0       0
$ ... 2268 like lines cut
*CONSTRAINED_EXTRA_NODES_NODE
$ANSA_ID;3;
        30      3587         0
$ANSA_ID;4;
        30      3588         0
*PART
anterior_bracket
        30        30        30                             0         0          
*SECTION_SOLID_TITLE
anterior_bracket
        30         1
*PART
anterior_potting
        31        31        31                             0         0          
*SECTION_SOLID_TITLE
anterior_potting
        31         1
*MAT_RIGID_TITLE
Bracket rigid anterior
        30   7.85E-6      210.       0.3        0.        0.        0.
       1.0        4.        7.
        0.        0.        0.        0.        0.        0.
*MAT_ELASTIC_TITLE
Potting material
        31     2.E-6       2.2      0.34        0.        0.        0.
*SET_PART_LIST_TITLE
potting_anterior
        30                                        
        31
*SET_NODE_LIST_TITLE
SET_NODE_0000000004
        31                                        
      3589       670       671       672       663       654       653       652
       661       580       581       582       573       564       563       562
       571      3590
$ANSA_COLOR;30;SECTION_SOLID;.564705908298492;.533333361148834;.074509806931019;
$1.;
$ANSA_COLOR;31;SECTION_SOLID;.533333361148834;.678431391716003;.376470595598221;
$1.;
$ANSA_COLOR;30;MAT20 MAT_RIGID;.615686297416687;.952941179275513;.25490197539329
$5;1.;
$ANSA_COLOR;31;MAT1 MAT_ELASTIC;0.5686274766922;.176470592617989;.29411765933036
$8;1.;
$ANSA_USER_ATTRIBUTES;SECTION_SOLID;User/cad_material;TEXT;RW;YES;;;
$ANSA_PART;PART;ID;1;NAME;Untitled;STUDY_VERSION;0;PID_OFFSET;0;COLOR;161;161;13
$0;0;IS_COLOR_ACTIVE;-1;PART_TYPE;Undefined;ATTRIBUTES;2;DM/File Type;ANSA;DM/St
$atus;WIP;CONTAINS;CONSTRAINED_EXTRA_NODES_NODE;3-4;CONSTRAINED_JOINT_REVOLUTE;2
$882;CONSTRAINED_NODAL_RIGID_BODY;2881;SECTION_SOLID;30-31;
*END
