$
$ANSA_VERSION;22.1.0;
$
$
$ file created by  A N S A  Thu Nov 24 11:58:35 2022
$
$ output from :
$
$ C:/Work/SOT/SAFER_HBM_validation/Kindig_2009_isolated_rib_AP_bending/dyna_kind
$ ig_setups/trs/Untitled
$
$ Settings :
$
$ Output format : R11.1
$
$ Output : All
$
$ANSA_USER_ATTRIBUTES;posterior_potting.k;INCLUDE;DM/Status;TEXT;WIP;
$
$
$
$
$
$
$ANSA_COLOR;posterior_potting.k;INCLUDE;.721568644046783;.588235318660736;.59215
$6887054443;1.;
*KEYWORD
*NODE
       1-503.39783176471-25.382027316406224.506954029628       0       0
       2-503.39783176471-20.373764298006224.506954029628       0       0
       3-500.97852967305-20.373764298006 220.14241752184       0       0
       4-500.97852967305-25.382027316406 220.14241752184       0       0
       5-505.81713385637-25.382027316405228.871490537415       0       0
       6-505.81713385637-20.373764298006228.871490537415       0       0
       7-503.39783176471-15.365501279606224.506954029628       0       0
       8-500.97852967305-15.365501279606 220.14241752184       0       0
       9-508.23643594804-25.382027316405233.236027045202       0       0
      10-508.23643594804-20.373764298006233.236027045202       0       0
      11-505.81713385637-15.365501279606228.871490537415       0       0
      12-503.39783176471-10.357238261206224.506954029628       0       0
      13-500.97852967305-10.357238261206 220.14241752184       0       0
      14 -510.6557380397-25.382027316405237.600563552989       0       0
      15 -510.6557380397-20.373764298006237.600563552989       0       0
      16-508.23643594804-15.365501279606233.236027045202       0       0
      17-505.81713385637-10.357238261206228.871490537415       0       0
      18-503.39783176471-5.3489752428063224.506954029628       0       0
      19-500.97852967305-5.3489752428063 220.14241752184       0       0
      20-513.07504013136-25.382027316405241.965100060776       0       0
$ ... 1776 like lines cut
*CONSTRAINED_JOINT_REVOLUTE_ID
      2884                                                                      
      3585      3592      3586      3591                            0.        0.
*CONSTRAINED_NODAL_RIGID_BODY
      2883                  41                   0         0         0
*ELEMENT_SOLID
    1241      41
     125     124     123     122    1105    1200    1290    1253       0       0
    1242      41
     124     129     128     123    1200    1201    1291    1290       0       0
    1243      41
     122     123     127     126    1253    1290    1292    1252       0       0
    1244      41
     129     134     133     128    1201    1202    1293    1291       0       0
    1245      41
     123     128     132     127    1290    1291    1294    1292       0       0
    1246      41
     126     127     131     130    1252    1292    1295    1251       0       0
    1247      41
     134     140     139     133    1202    1203    1296    1293       0       0
    1248      41
     128     133     138     132    1291    1293    1297    1294       0       0
    1249      41
     127     132     137     131    1292    1294    1298    1295       0       0
    1250      41
     130     131     136     135    1251    1295    1299    1250       0       0
$ ... 2268 like lines cut
*CONSTRAINED_EXTRA_NODES_NODE
$ANSA_ID;1;
        40      3585         0
$ANSA_ID;2;
        40      3586         0
*PART
posterior_bracket
        40        40        40                             0         0          
*SECTION_SOLID_TITLE
posterior_bracket
        40         1
*PART
posterior_potting
        41        41        41                             0         0          
*SECTION_SOLID_TITLE
posterior_potting
        41         1
*MAT_RIGID_TITLE
Bracket rigid posterior
        40   7.85E-6      210.       0.3        0.        0.        0.
       1.0        4.        7.
        0.        0.        0.        0.        0.        0.
*MAT_ELASTIC_TITLE
Potting material
        41     2.E-6       2.2      0.34        0.        0.        0.
*DEFINE_CURVE_TITLE
zero
        41         0        1.        1.        0.        0.         0         0
                  0.                  0.
               5000.                  0.
*SET_PART_TITLE
potting_posterior
        40                                        
        41
*SET_NODE_LIST_TITLE
SET_NODE_0000000005
        41                                        
      3591      1185      1186      1187      1178      1169      1168      1167
      1176      1275      1276      1277      1259      1268      1257      1266
      1258      3592
$ANSA_COLOR;40;SECTION_SOLID;.635294139385223;.086274512112141;.596078455448151;
$1.;
$ANSA_COLOR;41;SECTION_SOLID;0.7843137383461;.172549024224281;0.91372549533844;1
$.;
$ANSA_COLOR;40;MAT20 MAT_RIGID;.831372559070587;.545098066329956;.12156862765550
$6;1.;
$ANSA_COLOR;41;MAT1 MAT_ELASTIC;.596078455448151;.780392169952393;.0509803928434
$85;1.;
$ANSA_USER_ATTRIBUTES;SECTION_SOLID;User/cad_material;TEXT;RW;YES;;;
$ANSA_PART;PART;ID;1;NAME;Untitled;STUDY_VERSION;0;PID_OFFSET;0;COLOR;161;161;13
$0;0;IS_COLOR_ACTIVE;-1;PART_TYPE;Undefined;ATTRIBUTES;2;DM/File Type;ANSA;DM/St
$atus;WIP;CONTAINS;CONSTRAINED_EXTRA_NODES_NODE;1-2;CONSTRAINED_JOINT_REVOLUTE;2
$884;CONSTRAINED_NODAL_RIGID_BODY;2883;SECTION_SOLID;40-41;
*END
