$
$ANSA_VERSION;22.1.0;
$
$
$ file created by  A N S A  Wed May  3 08:17:17 2023
$
$ output from :
$
$ C:/Users/yash/Untitled
$
$ Settings :
$
$ Output format : R13
$
$ Output : Visible
$
$
$
$
*KEYWORD
*NODE
 1007936       -890.5315      -0.0079277       322.07355       0       0
 1007937      -140.53146      -0.0079277       322.07355       0       0
*ELEMENT_BEAM
 1007905      25 1007937 1007936                                                
*PART
cable
$      PID|    SECID|      MID|         |     HGID|     GRAV|         |     TMID|
        25        25        25                             0                    
*SECTION_BEAM_TITLE
cable
$    SECID|   ELFORM|     SHRF|  QR/IRID|      CST|    SCOOR|      NSM|
        25         6                                      0.          
$      VOL|     INER|      CID|       CA|   OFFSET|    RRCON|    SRCON|    TRCON|
        0.        1.                 25.        0.        0.        0.        0.
*MAT_CABLE_DISCRETE_BEAM_TITLE
cable
$      MID|       RO|        E|     LCID|       F0|   TMAXF0|    TRAMP|    IREAD|
        25   7.85E-6      210.                                                  
$ANSA_COLOR;25;SECTION_BEAM_ELFORM_6;.992156863212585;.372549027204514;.81568628
$5495758;1.;
$ANSA_COLOR;25;MAT71 MAT_CABLE_DISCRETE_BEAM;.537254929542542;.427450984716415;.
$733333349227905;1.;
*END
