$
$ANSA_VERSION;22.1.0;
$
$
$ file created by  A N S A  Wed May  3 12:38:36 2023
$
$ output from :
$
$ C:/Work/SOT/SAFER_HBM_validation/Lumbar-Demetropolus-1998/dyna/Untitled
$
$ Settings :
$
$ Output format : R13
$
$ Output : Visible
$
$
$
$
*KEYWORD
*NODE
 1007936       709.28174    0.0079109995       322.07355       0       0
 1007937      -40.718292    0.0079109995       322.07355       0       0
*ELEMENT_BEAM
 1007905      25 1007937 1007936                                                
*PART
cable
        25        25        25                             0                    
*SECTION_BEAM_TITLE
cable
        25         6                                      0.          
        0.        1.                 25.        0.        0.        0.        0.
*MAT_CABLE_DISCRETE_BEAM_TITLE
cable
        25   7.85E-6      210.                                                  
$ANSA_COLOR;25;SECTION_BEAM_ELFORM_6;.992156863212585;.372549027204514;.81568628
$5495758;1.;
$ANSA_COLOR;25;MAT71 MAT_CABLE_DISCRETE_BEAM;.537254929542542;.427450984716415;.
$733333349227905;1.;
$ANSA_PART;PART;ID;1;NAME;Untitled;BELONGS_HERE;YES;STUDY_VERSION;0;PID_OFFSET;0
$;COLOR;159;195;155;0;IS_COLOR_ACTIVE;-1;PART_TYPE;Undefined;ATTRIBUTES;2;DM/Fil
$e Type;ANSA;DM/Status;WIP;CONTAINS;SECTION_BEAM_ELFORM_6;25;
*END
