$
$ANSA_VERSION;22.1.0;
$
$
$ file created by  A N S A  Wed Apr  5 16:24:12 2023
$
$ output from :
$
$ C:/Work/SOT/SAFER_HBM_validation/lumbar-Demetropolus-1998/SAFER_10.0/Anterior_
$ shear/Untitled
$
$ Settings :
$
$ Output format : R13
$
$ Output : Visible
$
$
$
$
*KEYWORD
*NODE
 1000000      -92.218735        9.281588        65.07356       0       0
 1000001      -95.869736        9.280874        65.07356       0       0
 1000002      -95.885185       12.962109        65.07356       0       0
 1000003      -92.225975       12.971989        65.07356       0       0
 1000004       -88.57965        9.275237        65.07356       0       0
 1000005      -88.574745       12.963102        65.07356       0       0
 1000006       -92.21654        5.626117        65.07356       0       0
 1000007       -95.86747       5.6274285        65.07356       0       0
 1000008       -99.53884        9.279421        65.07356       0       0
 1000009        -99.5498       12.942057        65.07356       0       0
 1000010        -95.9267       16.694887        65.07356       0       0
 1000011      -92.242195        16.72402        65.07356       0       0
 1000012       -84.94667         9.26222        65.07356       0       0
 1000013       -84.93417       12.936042        65.07356       0       0
 1000014       -88.58013       5.6223116        65.07356       0       0
 1000015       -88.56049       16.712608        65.07356       0       0
 1000016      -92.216835       1.9857962        65.07356       0       0
 1000017       -95.87018       1.9849147        65.07356       0       0
 1000018      -99.544876       5.6300945        65.07356       0       0
 1000019      -103.23505        9.290907        65.07356       0       0
$ ... 3948 like lines cut
*ELEMENT_SHELL
 1000000      12 1000000 1000001 1000002 1000003
 1000001      12 1000004 1000000 1000003 1000005
 1000002      12 1000006 1000007 1000001 1000000
 1000003      12 1000001 1000008 1000009 1000002
 1000004      12 1000003 1000002 1000010 1000011
 1000005      12 1000012 1000004 1000005 1000013
 1000006      12 1000014 1000006 1000000 1000004
 1000007      12 1000005 1000003 1000011 1000015
 1000008      12 1000016 1000017 1000007 1000006
 1000009      12 1000007 1000018 1000008 1000001
 1000010      12 1000008 1000019 1000020 1000009
 1000011      12 1000002 1000009 1000021 1000010
 1000012      12 1000011 1000010 1000022 1000023
 1000013      12 1000024 1000012 1000013 1000025
 1000014      12 1000026 1000014 1000004 1000012
 1000015      12 1000013 1000005 1000015 1000027
 1000016      12 1000028 1000016 1000006 1000014
 1000017      12 1000015 1000011 1000023 1000029
 1000018      12 1000030 1000031 1000017 1000016
 1000019      12 1000017 1000032 1000018 1000007
$ ... 445 like lines cut
*ELEMENT_SOLID
 1001395      10
 1000992 1000993 1000994 1000995 1000996 1000997 1000998 1000999       0       0
 1001396      10
 1001000 1001001 1001002 1001003 1001004 1001005 1001006 1001007       0       0
 1001397      10
 1001002 1001008 1001009 1001010 1001006 1001011 1001012 1001013       0       0
 1001398      10
 1001014 1001015 1001016 1001017 1001018 1001019 1001020 1001021       0       0
 1001399      10
 1001022 1001023 1001024 1001015 1001025 1001026 1001027 1001019       0       0
 1001400      10
 1001028 1001029 1001030 1001001 1001031 1001032 1001033 1001005       0       0
 1001401      10
 1001034 1001035 1001022 1001036 1001037 1001038 1001025 1001039       0       0
 1001402      10
 1001040 1001041 1001042 1001029 1001043 1001044 1001045 1001032       0       0
 1001403      10
 1001046 1001047 1001034 1001048 1001049 1001050 1001037 1001051       0       0
 1001404      10
 1001052 1001053 1001054 1001041 1001055 1001056 1001057 1001044       0       0
$ ... 6490 like lines cut
*PART
Lower potting
$      PID|    SECID|      MID|    EOSID|     HGID|     GRAV|   ADPOPT|     TMID|
        10        10        11                             0         0          
*SECTION_SOLID_TITLE
Lower potting
$    SECID|   ELFORM|
        10         1
*PART
Lower potting lower
$      PID|    SECID|      MID|    EOSID|     HGID|     GRAV|   ADPOPT|     TMID|
        11        11        11                             0         0          
*SECTION_SOLID_TITLE
Lower potting lower
$    SECID|   ELFORM|
        11         1
*PART
Lower potting fixed
$      PID|    SECID|      MID|         |     HGID|     GRAV|   ADPOPT|     TMID|
        12        12        12                             0         0          
*SECTION_SHELL_TITLE
Lower potting fixed
$    SECID|   ELFORM|     SHRF|      NIP|    PROPT|  QR/IRID|    ICOMP|
        12         2        1.        2.        1.         0         0
$       T1|       T2|       T3|       T4|     NLOC|    MAREA|     IDOF|   EDGSET|
        1.        1.        1.        1.                            0.          
*MAT_ELASTIC_TITLE
Potting material
$      MID|       RO|        E|       PR|       DA|       DB|        K|
        11    1.5E-6        2.       0.3        0.        0.        0.
*MAT_RIGID_TITLE
Lower potting
$      MID|       RO|        E|       PR|        N|   COUPLE|        M| ALIAS_RE|
        12     1.E-6       10.       0.3        0.        0.        0.
$      CMO|     CON1|     CON2|
       0.0                    
$       A1|       A2|       A3|       V1|       V2|       V3|
        0.        0.        0.        0.        0.        0.
*SET_PART_LIST
    300005                                        
        10
*END
