$
$ANSA_VERSION;22.1.0;
$
$
$ file created by  A N S A  Mon May 16 08:04:32 2022
$
$ output from :
$
$ C:/Users/gussve/Desktop/Ivarsson_et_al_2009/common/setup_foam.k
$
$ Settings :
$
$ Output format : R13
$
$ Output : All
$
$
$
$
*KEYWORD
*MAT_LOW_DENSITY_FOAM_TITLE
$#                                                                         TITLE
Foam
$#     MID        RO         E      LCID        TC        HU      BETA      DAMP
         4   1.56E-8      3.38      100.        0.        1.        0.       0.5
$#   SHAPE      FAIL    BVFLAG        ED     BETA1      KCON       REF
        0.        0.        0.        0.        0.        0.        0.
*DEFINE_CURVE_TITLE
$#                                                                         TITLE
Ivarsson_Foam_20mms
$#    LCID      SIDR      SCLA      SCLO      OFFA      OFFO    DATTYP
       100         0        1.        1.        0.        0.         0
$#                A1                  O1
                  0.                  0.
         0.004272467          7.79355E-6
         0.010812795          1.61444E-5
         0.013661422           2.4964E-5
         0.019831541          3.89712E-5
         0.023613848          4.92011E-5
         0.025825911          6.01065E-5
         0.031025256          7.89158E-5
         0.037683434          9.55195E-5
         0.041784153         0.000107364
          0.04528208         0.000121453
         0.047390747         0.000133518
         0.052562447         0.000152106
         0.057832515         0.000169955
          0.06237755         0.000186175
         0.065761851          0.00019789
         0.070867855         0.000212924
          0.07479045         0.000227852
         0.079530544         0.000242314
         0.085529518          0.00025709
$ ... 72 like lines cut
*NODE
 9008916       221.08004      -125.00902       47.451075       0       0
 9008917       221.08004      -121.06617       47.451075       0       0
 9008918       221.08004      -117.12331       47.451075       0       0
 9008919       221.08004      -113.18045       47.451075       0       0
 9008920       221.08004      -109.23759       47.451075       0       0
 9008921       221.08004      -105.29474       47.451075       0       0
 9008922       221.08004      -101.35188       47.451075       0       0
 9008923       221.08004      -97.409023       47.451075       0       0
 9008924       224.96656      -97.409023       47.315355       0       0
 9008925       228.85308      -97.409023       47.179634       0       0
 9008926        232.7396      -97.409023       47.043914       0       0
 9008927       236.62612      -97.409023       46.908194       0       0
 9008928       240.51264      -97.409023       46.772474       0       0
 9008929       244.39916      -97.409023       46.636753       0       0
 9008930       248.28568      -97.409023       46.501033       0       0
 9008931        252.1722      -97.409023       46.365313       0       0
 9008932       256.05872      -97.409023       46.229593       0       0
 9008933       259.94524      -97.409023       46.093872       0       0
 9008934       263.83176      -97.409023       45.958152       0       0
 9008935       267.71828      -97.409023       45.822432       0       0
$ ... 436 like lines cut
*ELEMENT_SHELL
 9006936     300 9009063 9009062 9009066 9009067
 9006937     300 9009057 9009063 9009067 9009058
 9006938     300 9009067 9009066 9009047 9009046
 9006939     300 9009058 9009067 9009046 9009045
 9006940     300 9009062 9009024 9009023 9009066
 9006941     300 9009066 9009023 9009022 9009047
 9006942     300 9008951 9008952 9009064 9009065
 9006943     300 9008950 9008951 9009065 9009056
 9006944     300 9009065 9009064 9009062 9009063
 9006945     300 9009056 9009065 9009063 9009057
 9006946     300 9008952 9008953 9009025 9009064
 9006947     300 9009064 9009025 9009024 9009062
 9006948     300 9009044 9008944 9008945 9009061
 9006949     300 9009045 9009044 9009061 9009058
 9006950     300 9009061 9008945 9008946 9009059
 9006951     300 9009058 9009061 9009059 9009057
 9006952     300 9009059 9008946 9008947 9009060
 9006953     300 9009057 9009059 9009060 9009056
 9006954     300 9009060 9008947 9008948 9008949
 9006955     300 9009056 9009060 9008949 9008950
$ ... 232 like lines cut
*ELEMENT_SOLID
 9006684 9000013
 9008979 9008978 9008983 9008981 9009068 9009071 9009070 9009069       0       0
 9006685 9000013
 9009068 9009071 9009070 9009069 9009072 9009075 9009074 9009073       0       0
 9006686 9000013
 9008978 9008974 9008973 9008983 9009071 9009077 9009076 9009070       0       0
 9006687 9000013
 9009071 9009077 9009076 9009070 9009075 9009079 9009078 9009074       0       0
 9006688 9000013
 9008981 9008983 9008984 9008982 9009069 9009070 9009081 9009080       0       0
 9006689 9000013
 9009069 9009070 9009081 9009080 9009073 9009074 9009083 9009082       0       0
 9006690 9000013
 9008983 9008973 9008972 9008984 9009070 9009076 9009084 9009081       0       0
 9006691 9000013
 9009070 9009076 9009084 9009081 9009074 9009078 9009085 9009083       0       0
 9006692 9000013
 9008982 9008984 9008926 9008925 9009080 9009081 9009087 9009086       0       0
 9006693 9000013
 9009080 9009081 9009087 9009086 9009082 9009083 9009089 9009088       0       0
$ ... 484 like lines cut
*PART
SECTION_SHELL
       300       300       300                             0         0          
*SECTION_SHELL_TITLE
SECTION_SHELL
       300         2        1.        2.        1.         0         0
        1.        1.        1.       1.                             0.          
*PART
foam
   9000013   9000013         4             9000013         0         0          
*SECTION_SOLID_TITLE
foam
   9000013         1
*MAT_NULL_TITLE
Default MAT9 MAT_NULL
       300   1.56E-8        0.        0.        0.        0.   210000.       0.3
*HOURGLASS
   9000013         5                                                            
$ANSA_COLOR;300;SECTION_SHELL;.674509823322296;.427450984716415;.678431391716003
$;1.;
$ANSA_COLOR;9000013;SECTION_SOLID;.576470613479614;.239215686917305;.24313725531
$1012;1.;
$ANSA_COLOR;4;MAT1 MAT_ELASTIC;.596078455448151;.007843137718737;.32549020648002
$6;1.;
$ANSA_COLOR;300;MAT9 MAT_NULL;.768627464771271;.529411792755127;.356862753629684
$;1.;
$ANSA_NAME_COMMENT;4;MAT1 MAT_ELASTIC;Default MAT1 MAT_ELASTIC;;YES;NO;NO;
$ANSA_USER_ATTRIBUTES;SECTION_SHELL;User/cad_material;TEXT;RW;YES;;;
$ANSA_USER_ATTRIBUTES;SECTION_SHELL;User/cad_thickness;TEXT;RW;YES;;;
$ANSA_USER_ATTRIBUTES;SECTION_SOLID;User/cad_material;TEXT;RW;YES;;;
$ANSA_PART;GROUP;ID;1;NAME;setup_foam.k;BELONGS_HERE;YES;PID_OFFSET;0;COLOR;201;
$236;118;0;IS_COLOR_ACTIVE;-1;PART_TYPE;Undefined;ATTRIBUTES;2;DM/File Type;ANSA
$;DM/Status;WIP;CONTAINS;ANSAPART;3;
$ANSA_PART;PART;ID;3;MID;9000013;NAME;foam;BELONGS_HERE;YES;STUDY_VERSION;0;PID_
$OFFSET;0;COLOR;206;168;77;0;IS_COLOR_ACTIVE;-1;PART_TYPE;Undefined;ATTRIBUTES;2
$;DM/File Type;ANSA;DM/Status;WIP;CONTAINS;SECTION_SHELL;300;SECTION_SOLID;90000
$13;
*END
