$
$ANSA_VERSION;22.1.0;
$
$
$ file created by  A N S A  Tue Jul 18 15:55:52 2023
$
$ output from :
$
$ C:/Users/yash/Box/GUSTAV_EXJOBB_FEMUR_KNEE_MODELS_220706/Simuleringar/Ivarsson
$ _et_al_2009_COMB/1_01/Untitled
$
$ Settings :
$
$ Output format : R13
$
$ Output : All
$
$
$
$
$ANSA_COLOR;potting_cups.key;INCLUDE;.737254917621613;.125490203499794;.89019608
$4976196;1.;
*KEYWORD
*NODE
       1            185.35.3880721472015 -13.84501172402       0       0
       2            185.36.6191725295362-10.150675019501       0       0
       3            185.37.4199915099599 -6.613942485144       0       0
       4            185.37.8614081408616-3.2424950240759       0       0
       5            185.-25.042771080932 -28.58075606645       0       0
       6            185.-21.370980534359-31.421031027767       0       0
       7            185.13.9500228423524-35.346808379663       0       0
       8            185.-17.560001364719-33.699352399422       0       0
       9            185.35.3972054247522 13.821644187738       0       0
      10            185.33.6695062919472 17.617160558074       0       0
      11            185.-31.310287328567-21.532902898376       0       0
      12            185.-28.445390377037 -25.19642369727       0       0
      13            185.-13.742631295698-35.427956263489       0       0
      14            185.-10.025842393974-36.653546682266       0       0
      15            185. -6.470712723734-37.445024724776       0       0
      16            185.-3.0826357853906-37.874758838562       0       0
      17            185..181690320903797-37.999565641613       0       0
      18            185.-36.616535513992-10.160183416262       0       0
      19            185.-33.615902187658-17.719230236876       0       0
      20            185.  3.374518870578-37.849869520548       0       0
$ ... 9836 like lines cut
*ELEMENT_SHELL
    9676       1     357     616     615     356
    9677       1     356     615     614     355
    9678       1     355     614     613     354
    9679       1     354     613     612     353
    9680       1     353     612     611     352
    9681       1     352     611     610     351
    9682       1     351     610     609     350
    9683       1     350     609     608     349
    9684       1     349     608     607     348
    9685       1     348     607     606     347
    9686       1     347     606     604     345
    9687       1     344     603     605     346
    9688       1     345     604     602     343
    9689       1     342     402     603     344
    9690       1     343     602     402     342
    9691       1     341     401     616     357
    9692       1     340     400     401     341
    9693       1     339     399     400     340
    9694       1     338     398     399     339
    9695       1     337     397     398     338
$ ... 565 like lines cut
*ELEMENT_SOLID
     473       2
     606     600     601     607    1241    1233    1268    1252       0       0
     474       2
     607     601     552     608    1252    1268    1246    1301       0       0
     475       2
     604     599     600     606    1295    1283    1233    1241       0       0
     476       2
     602     542     599     604    1304    1310    1283    1295       0       0
     477       2
     371     598     597     368    1318    1336    1339    1352       0       0
     478       2
     373     596     598     371    1358    1364    1336    1318       0       0
     479       2
     368     597     595     366    1352    1339    1368    1372       0       0
     480       2
     375     592     596     373    1378    1381    1364    1358       0       0
     481       2
     366     595     594     365    1372    1368    1383    1387       0       0
     482       2
     365     594     589     364    1387    1383    1395    1402       0       0
$ ... 17530 like lines cut
*PART
Alumnium_Cup
$      PID|    SECID|      MID|         |     HGID|     GRAV|   ADPOPT|     TMID|
         1         1         1                             0         0          
*SECTION_SHELL_TITLE
Alumnium_Cup
$    SECID|   ELFORM|     SHRF|      NIP|    PROPT|  QR/IRID|    ICOMP|
         1         2        1.        2.        1.         0         0
$       T1|       T2|       T3|       T4|     NLOC|    MAREA|     IDOF|   EDGSET|
        2.        2.        2.        2.                            0.          
*PART
urethane_casting_resin
$      PID|    SECID|      MID|    EOSID|     HGID|     GRAV|   ADPOPT|     TMID|
         2         2         2                             0         0          
*SECTION_SOLID_TITLE
urethane_casting_resin
$    SECID|   ELFORM|
         2         1
*MAT_RIGID_TITLE
aluminium cup
$      MID|       RO|        E|       PR|        N|   COUPLE|        M| ALIAS_RE|
         1    2.7E-6       70.     0.334        0.        0.        0.
$      CMO|     CON1|     CON2|
       1.0        5.        6.
$       A1|       A2|       A3|       V1|       V2|       V3|
                                                            
*MAT_ELASTIC_TITLE
urethane
$      MID|       RO|        E|       PR|       DA|       DB|        K|
         2    9.6E-7       2.5      0.39        0.        0.        0.
$ANSA_COLOR;1;SECTION_SHELL;.576470613479614;.294117659330368;.847058832645416;1
$.;
$ANSA_COLOR;2;SECTION_SOLID;.584313750267029;.160784319043159;.764705896377563;1
$.;
$ANSA_COLOR;1;MAT20 MAT_RIGID;0.5686274766922;.407843142747879;0.5686274766922;1
$.;
$ANSA_COLOR;2;MAT1 MAT_ELASTIC;.576470613479614;.274509817361832;.48627451062202
$5;1.;
*END
