$
$ANSA_VERSION;22.1.0;
$
$
$ file created by  A N S A  Mon Apr 24 12:52:50 2023
$
$ output from :
$
$ C:/Work/SOT/gus/Ivarsson_et_al_2009/1_37/Untitled
$
$ Settings :
$
$ Output format : R13
$
$ Output : All
$
$
$
$
$ANSA_COLOR;setup_impactor.key;INCLUDE;.737254917621613;.564705908298492;.141176
$477074623;1.;
*KEYWORD
*NODE
 9007558       245.22242      -58.409023       32.247298       0       0
 9007559       245.22242      -58.409023       36.247298       0       0
 9007560       245.22242      -58.409023       40.247298       0       0
 9007561       245.22242      -58.409023       44.247298       0       0
 9007562       245.22242      -58.409023       48.247298       0       0
 9007563       245.22242      -58.409023       52.247298       0       0
 9007564       245.22242      -58.409023       56.247298       0       0
 9007565       245.22242      -58.409023       60.247298       0       0
 9007566       245.22242      -58.409023         64.2473       0       0
 9007567       245.22242      -58.409023         68.2473       0       0
 9007568       245.22242      -58.409023         72.2473       0       0
 9007569       249.45575      -58.409023         72.2473       0       0
 9007570       253.68909      -58.409023         72.2473       0       0
 9007571       257.92242      -58.409023         72.2473       0       0
 9007572       262.15575      -58.409023         72.2473       0       0
 9007573       266.38909      -58.409023         72.2473       0       0
 9007574       270.62242      -58.409023         72.2473       0       0
 9007575       270.62242      -58.409023         68.2473       0       0
 9007576       270.62242      -58.409023         64.2473       0       0
 9007577       270.62242      -58.409023       60.247298       0       0
$ ... 1338 like lines cut
*ELEMENT_SOLID
 9005670 9000012
 9007611 9007654 9007653 9007612 9007655 9007658 9007657 9007656       0       0
 9005671 9000012
 9007655 9007658 9007657 9007656 9007659 9007662 9007661 9007660       0       0
 9005672 9000012
 9007659 9007662 9007661 9007660 9007663 9007666 9007665 9007664       0       0
 9005673 9000012
 9007663 9007666 9007665 9007664 9007667 9007670 9007669 9007668       0       0
 9005674 9000012
 9007667 9007670 9007669 9007668 9007671 9007674 9007673 9007672       0       0
 9005675 9000012
 9007671 9007674 9007673 9007672 9007675 9007678 9007677 9007676       0       0
 9005676 9000012
 9007675 9007678 9007677 9007676 9007679 9007682 9007681 9007680       0       0
 9005677 9000012
 9007679 9007682 9007681 9007680 9007683 9007686 9007685 9007684       0       0
 9005678 9000012
 9007683 9007686 9007685 9007684 9007687 9007690 9007689 9007688       0       0
 9005679 9000012
 9007687 9007690 9007689 9007688 9007691 9007694 9007693 9007692       0       0
$ ... 2008 like lines cut
*PART
impactor
$      PID|    SECID|      MID|    EOSID|     HGID|     GRAV|   ADPOPT|     TMID|
   9000012   9000012        13                             0         0          
*SECTION_SOLID_TITLE
impactor
$    SECID|   ELFORM|
   9000012         1
*MAT_RIGID_TITLE
Rigid Aluminium_CON_4_7
$      MID|       RO|        E|       PR|        N|   COUPLE|        M| ALIAS_RE|
        13    2.7E-6       70.      0.34        0.        0.        0.         0
$      CMO|     CON1|     CON2|
       1.0        4.        7.
$       A1|       A2|       A3|       V1|       V2|       V3|
        0.        0.        0.        0.        0.        0.
$ANSA_COLOR;9000012;SECTION_SOLID;.972549021244049;.678431391716003;.41176471114
$1586;1.;
$ANSA_COLOR;13;MAT20 MAT_RIGID;.674509823322296;.811764717102051;.59607845544815
$1;1.;
*END
