$
$ANSA_VERSION;22.1.0;
$
$
$ file created by  A N S A  Fri Jun  9 11:10:33 2023
$
$ output from :
$
$ C:/Work/SOT/SAFER_HBM_validation/Humerus-Kemper-2005/dyna/Untitled
$
$ Settings :
$
$ Output format : R13
$
$ Output : All
$
$
$
$
*KEYWORD
*NODE
       1            350.110.344827586207              0.       0       0
       2            350.117.241379310345              0.       0       0
       3            259.            200.              0.       0       0
       4            252.            200.              0.       0       0
       5            350.124.137931034483              0.       0       0
       6            350.131.034482758621              0.       0       0
       7            350.137.931034482759              0.       0       0
       8            350.144.827586206897              0.       0       0
       9            350.151.724137931034              0.       0       0
      10            350.158.620689655172              0.       0       0
      11            350. 165.51724137931              0.       0       0
      12            350.172.413793103448              0.       0       0
      13            350.179.310344827586              0.       0       0
      14            350.186.206896551724              0.       0       0
      15            350.193.103448275862              0.       0       0
      16            343.            200.              0.       0       0
      17            336.            200.              0.       0       0
      18            329.            200.              0.       0       0
      19            322.            200.              0.       0       0
      20            315.            200.              0.       0       0
$ ... 1510 like lines cut
*ELEMENT_SHELL
     567       1     364     141      82      83
     568       1     365     364      83      84
     569       1     366     365      84      85
     570       1     367     366      85      86
     571       1     368     367      86      87
     572       1     369     368      87      88
     573       1     370     369      88      89
     574       1     371     370      89      90
     575       1     372     371      90      91
     576       1     373     372      91      93
     577       1     374     373      93      94
     578       1     375     374      94      95
     579       1     376     375      95     142
     580       1     377     376     142     143
     581       1     378     377     143      99
     582       1     379     378      99     100
     583       1     380     379     100     157
     584       1     381     380     157      98
     585       1     382     381      98     158
     586       1     383     382     158      92
$ ... 1430 like lines cut
*PART
base
$      PID|    SECID|      MID|         |     HGID|     GRAV|   ADPOPT|     TMID|
         1         1         1                             0         0          
*SECTION_SHELL_TITLE
base
$    SECID|   ELFORM|     SHRF|      NIP|    PROPT|  QR/IRID|    ICOMP|
         1         2        1.        2.        1.         0         0
$       T1|       T2|       T3|       T4|     NLOC|    MAREA|     IDOF|   EDGSET|
        1.        1.        1.        1.                            0.          
*MAT_RIGID_TITLE
rigid_base
$      MID|       RO|        E|       PR|        N|   COUPLE|        M| ALIAS_RE|
         1    1.5E-6       10.       0.3        0.        0.        0.
$      CMO|     CON1|     CON2|
       1.0        7.        7.
$       A1|       A2|       A3|       V1|       V2|       V3|
        0.        0.        0.        0.        0.        0.
$ANSA_COLOR;1;SECTION_SHELL;.560784339904785;0.69803923368454;.294117659330368;1
$.;
$ANSA_COLOR;1;MAT20 MAT_RIGID;.901960790157318;.619607865810394;.129411771893501
$;1.;
*END
