$
$ANSA_VERSION;23.1.2;
$
$
$ file created by  A N S A  Thu Jan 18 13:07:53 2024
$
$ output from :
$
$ C:/Work/SOT/S11_validation/Kemper-2005-Humerus/dyna/Untitled
$
$ Settings :
$
$ Output format : R13
$
$ Output : All
$
$
$
$
*KEYWORD
*NODE
       1            50.81.4210854715E-14              0.       0       0
       21.4210854715E-14              0.              0.       0       0
       3              0.            50.8              0.       0       0
       4            50.8            50.8              0.       0       0
       547.41333333333331.3263464401E-14              0.       0       0
       644.02666666666671.2316074087E-14              0.       0       0
       7           40.641.1368683772E-14              0.       0       0
       837.25333333333331.0421293458E-14              0.       0       0
       933.86666666666679.4739031435E-15              0.       0       0
      10           30.488.5265128291E-15              0.       0       0
      1127.09333333333337.5791225148E-15              0.       0       0
      1223.70666666666676.6317322004E-15              0.       0       0
      13           20.325.6843418861E-15              0.       0       0
      1416.93333333333344.7369515717E-15              0.       0       0
      1513.54666666666673.7895612574E-15              0.       0       0
      16           10.16 2.842170943E-15              0.       0       0
      176.773333333333351.8947806287E-15              0.       0       0
      183.386666666666689.4739031435E-16              0.       0       0
      191.3263464401E-143.38666666666667              0.       0       0
      201.2316074087E-146.77333333333333              0.       0       0
$ ... 12084 like lines cut
*ELEMENT_SHELL
     141       2    4897    4910    2881    4884
     142       2    3483    3403    3640    3705
     143       2    3172    5269    4909    5457
     144       2    3658    2646    1162    3082
     145       2    5970    4257    5427    5563
     146       2    3463    3483    3705    3267
     147       2    5619    1299    2198    5754
     148       2    2602    1476    1545    1358
     149       2    1806    3463    3267    3681
     150       2    2046    2602    1358    1422
     151       2    4881    4897    4884    3290
     152       2    4738    5828    5970    3525
     153       2    1506    1806    3681    2078
     154       2    5241    3172    5457    5447
     155       2    3828    2046    1422    3708
     156       2    4883    4881    3290    4241
     157       2    1510    1506    2078    2087
     158       2    3403    3396    3051    3640
     159       2    1578    3828    3708    3782
     160       2    3396    3376    3619    3051
$ ... 7359 like lines cut
*ELEMENT_SOLID
       1       1
     207     208     222     221     531     521     513     561       0       0
       2       1
     206     207     221     220     556     531     561     544       0       0
       3       1
     205     206     220     219     584     556     544     569       0       0
       4       1
     204     205     219     218     566     584     569     589       0       0
       5       1
     203     204     218     217     592     566     589     598       0       0
       6       1
     202     203     217     216     606     592     598     613       0       0
       7       1
     201     202     216     215     621     606     613     631       0       0
       8       1
     200     201     215     214     638     621     631     651       0       0
       9       1
     199     200     214     213     658     638     651     660       0       0
      10       1
      28     199     213      27     665     658     660     666       0       0
$ ... 9880 like lines cut
*CONSTRAINED_RIGID_BODIES
$ANSA_ID;1;
         3         2         0
*PART
Potting
$      PID|    SECID|      MID|    EOSID|     HGID|     GRAV|   ADPOPT|     TMID|
         1         1         1                             0         0          
*SECTION_SOLID_TITLE
Potting
$    SECID|   ELFORM|
         1         1
*PART
outer_cup
$      PID|    SECID|      MID|         |     HGID|     GRAV|   ADPOPT|     TMID|
         2         2         2                             0         0          
*SECTION_SHELL_TITLE
outer_cup
$    SECID|   ELFORM|     SHRF|      NIP|    PROPT|  QR/IRID|    ICOMP|
         2         2        1.        2.        1.         0         0
$       T1|       T2|       T3|       T4|     NLOC|    MAREA|     IDOF|   EDGSET|
        3.        3.        3.        3.                            0.          
*PART
roller
$      PID|    SECID|      MID|         |     HGID|     GRAV|   ADPOPT|     TMID|
         3         3         3                             0         0          
*SECTION_SHELL_TITLE
roller
$    SECID|   ELFORM|     SHRF|      NIP|    PROPT|  QR/IRID|    ICOMP|
         3         2        1.        2.        1.         0         0
$       T1|       T2|       T3|       T4|     NLOC|    MAREA|     IDOF|   EDGSET|
        1.        1.        1.        1.                            0.          
*MAT_ELASTIC_TITLE
potting_compound
$      MID|       RO|        E|       PR|       DA|       DB|        K|
         1   1.12E-6       0.9       0.3        0.        0.        0.
*MAT_RIGID_TITLE
outer_cup
$      MID|       RO|        E|       PR|        N|   COUPLE|        M| ALIAS_RE|
         2    2.7E-6       70.       0.3        0.        0.        0.
$      CMO|     CON1|     CON2|
       0.0        0.        0.
$       A1|       A2|       A3|       V1|       V2|       V3|
        0.        0.        0.        0.        0.        0.
*MAT_RIGID_TITLE
roller
$      MID|       RO|        E|       PR|        N|   COUPLE|        M| ALIAS_RE|
         3    2.7E-6       70.       0.3        0.        0.        0.
$      CMO|     CON1|     CON2|
       0.0        0.        0.
$       A1|       A2|       A3|       V1|       V2|       V3|
        0.        0.        0.        0.        0.        0.
$ANSA_COLOR;1;SECTION_SOLID;.627451002597809;.482352942228317;.439215689897537;1
$.;
$ANSA_COLOR;2;SECTION_SHELL;.941176474094391;.854901969432831;.117647059261799;1
$.;
$ANSA_COLOR;3;SECTION_SHELL;.639215707778931;.890196084976196;.674509823322296;1
$.;
$ANSA_COLOR;1;MAT1 MAT_ELASTIC;.552941203117371;.882352948188782;.94117647409439
$1;1.;
$ANSA_COLOR;2;MAT20 MAT_RIGID;.800000011920929;.807843148708344;.196078434586525
$;1.;
$ANSA_COLOR;3;MAT20 MAT_RIGID;.666666686534882;.647058844566345;.027450980618596
$;1.;
$ANSA_USER_ATTRIBUTES;SECTION_SHELL;User/cad_material;TEXT;RW;YES;;;
$ANSA_USER_ATTRIBUTES;SECTION_SHELL;User/cad_thickness;TEXT;RW;YES;;;
$ANSA_USER_ATTRIBUTES;SECTION_SOLID;User/cad_material;TEXT;RW;YES;;;
$ANSA_PART;GROUP;ID;2;NAME;distal_cup.key;BELONGS_HERE;YES;PID_OFFSET;0;COLOR;20
$3;202;97;0;IS_COLOR_ACTIVE;-1;PART_TYPE;Undefined;ATTRIBUTES;2;DM/File Type;ANS
$A;DM/Status;WIP;CONTAINS;ANSAPART;4-7;
$ANSA_PART;PART;ID;1;NAME;Untitled;BELONGS_HERE;YES;STUDY_VERSION;0;PID_OFFSET;0
$;COLOR;220;138;201;0;IS_COLOR_ACTIVE;-1;PART_TYPE;Undefined;ATTRIBUTES;2;DM/Fil
$e Type;ANSA;DM/Status;WIP;
$ANSA_PART;PART;ID;4;MID;2;NAME;outer_cup;BELONGS_HERE;YES;STUDY_VERSION;0;PID_O
$FFSET;0;COLOR;208;134;56;0;IS_COLOR_ACTIVE;-1;PART_TYPE;Undefined;ATTRIBUTES;2;
$DM/File Type;ANSA;DM/Status;WIP;CONTAINS;SECTION_SHELL;2;
$ANSA_PART;PART;ID;5;MID;3;NAME;roller;BELONGS_HERE;YES;STUDY_VERSION;0;PID_OFFS
$ET;0;COLOR;210;100;35;0;IS_COLOR_ACTIVE;-1;PART_TYPE;Undefined;ATTRIBUTES;2;DM/
$File Type;ANSA;DM/Status;WIP;CONTAINS;SECTION_SHELL;3;
$ANSA_PART;PART;ID;6;MID;1;NAME;Potting;BELONGS_HERE;YES;STUDY_VERSION;0;PID_OFF
$SET;0;COLOR;212;66;15;0;IS_COLOR_ACTIVE;-1;PART_TYPE;Undefined;ATTRIBUTES;2;DM/
$File Type;ANSA;DM/Status;WIP;CONTAINS;SECTION_SOLID;1;
$ANSA_PART;PART;ID;7;NAME;NO PID ELMNTs;BELONGS_HERE;YES;STUDY_VERSION;0;PID_OFF
$SET;0;COLOR;215;32;249;0;IS_COLOR_ACTIVE;-1;PART_TYPE;Undefined;ATTRIBUTES;2;DM
$/File Type;ANSA;DM/Status;WIP;CONTAINS;CONSTRAINED_RIGID_BODIES;1;
*END
