$
$ANSA_VERSION;22.1.0;
$
$
$ file created by  A N S A  Tue May 16 13:49:07 2023
$
$ output from :
$
$ C:/Users/yash/Untitled
$
$ Settings :
$
$ Output format : R13
$
$ Output : All
$
$
$
$
*KEYWORD
*NODE
 4714675           -38.1-24.606250009687-24.606250009687       0       0
 4714676-32.657142857143-24.606250009687-24.606250009687       0       0
 4714677-27.214285714286-24.606250009687-24.606250009687       0       0
 4714678-21.771428571429-24.606250009687-24.606250009687       0       0
 4714679-16.328571428571-24.606250009687-24.606250009687       0       0
 4714680-10.885714285714-24.606250009687-24.606250009687       0       0
 4714681-5.4428571428571-24.606250009687-24.606250009687       0       0
 4714682              0.-24.606250009687-24.606250009687       0       0
 47146835.44285714285718-24.606250009687-24.606250009687       0       0
 471468410.8857142857143-24.606250009687-24.606250009687       0       0
 471468516.3285714285714-24.606250009687-24.606250009687       0       0
 471468621.7714285714286-24.606250009687-24.606250009687       0       0
 471468727.2142857142857-24.606250009687-24.606250009687       0       0
 471468832.6571428571429-24.606250009687-24.606250009687       0       0
 4714689            38.1-24.606250009687-24.606250009687       0       0
 4714690           -38.1-24.606250009687 -19.68500000775       0       0
 4714691-32.657142857143-24.606250009687 -19.68500000775       0       0
 4714692-27.214285714286-24.606250009687 -19.68500000775       0       0
 4714693-21.771428571429-24.606250009687 -19.68500000775       0       0
 4714694-16.328571428571-24.606250009687 -19.68500000775       0       0
$ ... 3610 like lines cut
*ELEMENT_SHELL
 5446103       3 4714690 4714675 4714676 4714691
 5446104       3 4714691 4714676 4714677 4714692
 5446105       3 4714692 4714677 4714678 4714693
 5446106       3 4714693 4714678 4714679 4714694
 5446107       3 4714694 4714679 4714680 4714695
 5446108       3 4714695 4714680 4714681 4714696
 5446109       3 4714696 4714681 4714682 4714697
 5446110       3 4714697 4714682 4714683 4714698
 5446111       3 4714698 4714683 4714684 4714699
 5446112       3 4714699 4714684 4714685 4714700
 5446113       3 4714700 4714685 4714686 4714701
 5446114       3 4714701 4714686 4714687 4714702
 5446115       3 4714702 4714687 4714688 4714703
 5446116       3 4714703 4714688 4714689 4714704
 5446117       3 4714705 4714690 4714691 4714706
 5446118       3 4714706 4714691 4714692 4714707
 5446119       3 4714707 4714692 4714693 4714708
 5446120       3 4714708 4714693 4714694 4714709
 5446121       3 4714709 4714694 4714695 4714710
 5446122       3 4714710 4714695 4714696 4714711
$ ... 1100 like lines cut
*ELEMENT_SOLID
 5444703       1
 4714675 4714840 4714855 4714690 4714676 4714841 4714856 4714691       0       0
 5444704       1
 4714676 4714841 4714856 4714691 4714677 4714842 4714857 4714692       0       0
 5444705       1
 4714677 4714842 4714857 4714692 4714678 4714843 4714858 4714693       0       0
 5444706       1
 4714678 4714843 4714858 4714693 4714679 4714844 4714859 4714694       0       0
 5444707       1
 4714679 4714844 4714859 4714694 4714680 4714845 4714860 4714695       0       0
 5444708       1
 4714680 4714845 4714860 4714695 4714681 4714846 4714861 4714696       0       0
 5444709       1
 4714681 4714846 4714861 4714696 4714682 4714847 4714862 4714697       0       0
 5444710       1
 4714682 4714847 4714862 4714697 4714683 4714848 4714863 4714698       0       0
 5444711       1
 4714683 4714848 4714863 4714698 4714684 4714849 4714864 4714699       0       0
 5444712       1
 4714684 4714849 4714864 4714699 4714685 4714850 4714865 4714700       0       0
$ ... 5580 like lines cut
*PART
proximal_potting
$      PID|    SECID|      MID|    EOSID|     HGID|     GRAV|   ADPOPT|     TMID|
         1         1         1                             0         0          
*SECTION_SOLID_TITLE
proximal_potting
$    SECID|   ELFORM|
         1         1
*PART
distal_potting
$      PID|    SECID|      MID|    EOSID|     HGID|     GRAV|   ADPOPT|     TMID|
         2         2         2                             0         0          
*SECTION_SOLID_TITLE
distal_potting
$    SECID|   ELFORM|
         2         1
*PART
proximal_fixture
$      PID|    SECID|      MID|         |     HGID|     GRAV|   ADPOPT|     TMID|
         3         3         3                             0         0          
*SECTION_SHELL_TITLE
proximal_fixture
$    SECID|   ELFORM|     SHRF|      NIP|    PROPT|  QR/IRID|    ICOMP|
         3         2        1.        2.        1.         0         0
$       T1|       T2|       T3|       T4|     NLOC|    MAREA|     IDOF|   EDGSET|
     3.175     3.175     3.175     3.175                            0.          
*PART
distal_fixture
$      PID|    SECID|      MID|         |     HGID|     GRAV|   ADPOPT|     TMID|
         4         4         4                             0         0          
*SECTION_SHELL_TITLE
distal_fixture
$    SECID|   ELFORM|     SHRF|      NIP|    PROPT|  QR/IRID|    ICOMP|
         4         2        1.        2.        1.         0         0
$       T1|       T2|       T3|       T4|     NLOC|    MAREA|     IDOF|   EDGSET|
     3.175     3.175     3.175     3.175                            0.          
*MAT_ELASTIC_TITLE
proximal_potting_bondo
$      MID|       RO|        E|       PR|       DA|       DB|        K|
         1   1.12E-6       0.9       0.3        0.        0.        0.
*MAT_ELASTIC_TITLE
distal_potting_bondo
$      MID|       RO|        E|       PR|       DA|       DB|        K|
         2   1.12E-6       0.9       0.3        0.        0.        0.
*MAT_RIGID_TITLE
proximal_fixture_aluminum
$      MID|       RO|        E|       PR|        N|   COUPLE|        M| ALIAS_RE|
         3    2.7E-6       70.       0.3        0.        0.        0.
$      CMO|     CON1|     CON2|
       1.0        7.        6.
$       A1|       A2|       A3|       V1|       V2|       V3|
        0.        0.        0.        0.        0.        0.
*MAT_RIGID_TITLE
distal_fixture_aluminum
$      MID|       RO|        E|       PR|        N|   COUPLE|        M| ALIAS_RE|
         4    2.7E-6       70.       0.3        0.        0.        0.
$      CMO|     CON1|     CON2|
       1.0        5.        7.
$       A1|       A2|       A3|       V1|       V2|       V3|
        0.        0.        0.        0.        0.        0.
*END
