*KEYWORD
*NODE
 1011384104.786254484885100.00064762463629.5472701909477       0       0
 1011385104.786525315109 96.92372454119729.5472654122812       0       0
 1011386104.78679614533293.846801457757729.5472606336146       0       0
 1011387104.78706697555690.769878374318429.5472558549481       0       0
 1011388104.78733780577987.692955290879129.5472510762816       0       0
 1011389104.78760863600384.616032207439829.5472462976151       0       0
 1011390104.78787946622681.539109124000529.5472415189486       0       0
 1011391104.78815029644978.4621860405612 29.547236740282       0       0
 1011392104.78842112667375.385262957121929.5472319616155       0       0
 1011393104.78869195689672.3083398736826 29.547227182949       0       0
 1011394 104.7889627871269.231416790243329.5472224042825       0       0
 1011395104.789233617343 66.15449370680429.5472176256159       0       0
 1011396104.78950444756763.077570623364729.5472128469494       0       0
 1011397 104.7897752777960.000647539925429.5472080682829       0       0
 1011398104.79004610801356.923724456486129.5472032896164       0       0
 1011399104.79031693823753.846801373046829.5471985109499       0       0
 1011400 104.7905877684650.769878289607529.5471937322834       0       0
 1011401104.79085859868447.692955206168229.5471889536168       0       0
 1011402104.79112942890744.616032122728929.5471841749503       0       0
 1011403 104.7914002591341.539109039289629.5471793962838       0       0
$ ... 8626 like lines cut
*ELEMENT_SHELL
 5446103       3 4714690 4714675 4714676 4714691
 5446104       3 4714691 4714676 4714677 4714692
 5446105       3 4714692 4714677 4714678 4714693
 5446106       3 4714693 4714678 4714679 4714694
 5446107       3 4714694 4714679 4714680 4714695
 5446108       3 4714695 4714680 4714681 4714696
 5446109       3 4714696 4714681 4714682 4714697
 5446110       3 4714697 4714682 4714683 4714698
 5446111       3 4714698 4714683 4714684 4714699
 5446112       3 4714699 4714684 4714685 4714700
 5446113       3 4714700 4714685 4714686 4714701
 5446114       3 4714701 4714686 4714687 4714702
 5446115       3 4714702 4714687 4714688 4714703
 5446116       3 4714703 4714688 4714689 4714704
 5446117       3 4714705 4714690 4714691 4714706
 5446118       3 4714706 4714691 4714692 4714707
 5446119       3 4714707 4714692 4714693 4714708
 5446120       3 4714708 4714693 4714694 4714709
 5446121       3 4714709 4714694 4714695 4714710
 5446122       3 4714710 4714695 4714696 4714711
$ ... 1100 like lines cut
*ELEMENT_SOLID
 1024235       5
 1011384 1011780 1011846 1011450 1011385 1011781 1011847 1011451       0       0
 1024236       5
 1011385 1011781 1011847 1011451 1011386 1011782 1011848 1011452       0       0
 1024237       5
 1011386 1011782 1011848 1011452 1011387 1011783 1011849 1011453       0       0
 1024238       5
 1011387 1011783 1011849 1011453 1011388 1011784 1011850 1011454       0       0
 1024239       5
 1011388 1011784 1011850 1011454 1011389 1011785 1011851 1011455       0       0
 1024240       5
 1011389 1011785 1011851 1011455 1011390 1011786 1011852 1011456       0       0
 1024241       5
 1011390 1011786 1011852 1011456 1011391 1011787 1011853 1011457       0       0
 1024242       5
 1011391 1011787 1011853 1011457 1011392 1011788 1011854 1011458       0       0
 1024243       5
 1011392 1011788 1011854 1011458 1011393 1011789 1011855 1011459       0       0
 1024244       5
 1011393 1011789 1011855 1011459 1011394 1011790 1011856 1011460       0       0
$ ... 14030 like lines cut
*PART
proximal_potting
         1         1         1                             0         0          
*SECTION_SOLID_TITLE
proximal_potting
         1         1
*PART
distal_potting
         2         2         2                             0         0          
*SECTION_SOLID_TITLE
distal_potting
         2         1
*PART
proximal_fixture
         3         3         3                             0         0          
*SECTION_SHELL_TITLE
proximal_fixture
         3         2        1.        2.        1.         0         0
     3.175     3.175     3.175     3.175                            0.          
*PART
distal_fixture
         4         4         4                             0         0          
*SECTION_SHELL_TITLE
distal_fixture
         4         2        1.        2.        1.         0         0
     3.175     3.175     3.175     3.175                            0.          
*PART
impactor
         5         5         5                             0         0          
*SECTION_SOLID_TITLE
impactor
         5         1
*LOAD_BODY_Z
         2  -0.00981         0                                        
*BOUNDARY_PRESCRIBED_MOTION_RIGID_ID
         1Impactor_Prescribed_Motion                                            
         5         3         0         4        1.         0                  0.
*MAT_ELASTIC_TITLE
proximal_potting_bondo
         1   1.12E-6       0.9       0.3        0.        0.        0.
*MAT_ELASTIC_TITLE
distal_potting_bondo
         2   1.12E-6       0.9       0.3        0.        0.        0.
*MAT_RIGID_TITLE
proximal_fixture_aluminum
         3    2.7E-6       70.       0.3        0.        0.        0.
       1.0        7.        6.
        0.        0.        0.        0.        0.        0.
*MAT_RIGID_TITLE
distal_fixture_aluminum
         4    2.7E-6       70.       0.3        0.        0.        0.
       1.0        5.        6.
        0.        0.        0.        0.        0.        0.
*MAT_RIGID_TITLE
impactor_steel
         5   7.85E-6      210.       0.3        0.        0.        0.
       1.0        4.        7.
        0.        0.        0.        0.        0.        0.
*DEFINE_CURVE_TITLE
Gravitation
         2         0        1.        1.        0.        0.         0         0
                  0.                  1.
               5000.                  1.
*DEFINE_CURVE_TITLE
Prescribed_displacement_001
         4         0        1.        1.        0.        0.         0         0
                  0.               -0.01
               5000.               -0.01
*END
