$
$ANSA_VERSION;21.1.1;
$
$
$ file created by  A N S A  Tue Aug 17 12:43:10 2021
$
$ output from :
$
$ C:/Users/erikeli/Box/PhD/3_PhD-Project/4_Projects/IHBM4/WP2/2_Analysis/simulat
$ ions/VALIDATION_Guillemot_1998/load_cases/Acetabulum_dynamic_fracture_B451_sil
$ icone_40s-1/D2_2_Validation_male/Untitled
$
$ Settings :
$
$ Output format : R12
$
$ Output : All
$
$
$
$
*KEYWORD
*NODE
  100000-1.8802954917981-29.823504787433-20.196980609642       0       0
  100001-.79614144233795-29.823504787433-18.842377756236       0       0
  100002-2.1646623263047-29.823504787433-17.663076006626       0       0
  100003-3.3768330120835-29.823504787433-19.119588954484       0       0
  100004-.54645935095005-29.823504787433-21.052498342436       0       0
  100005.438863209116171-29.823504787433-19.942917835415       0       0
  100006-3.5873974539002-29.823504787433-16.390690049496       0       0
  100007-4.9204250230141-29.823504787433-17.860458621045       0       0
  100008-5.0030996698243-29.823504787433-15.038386624782       0       0
  100009-6.4287106897458-29.823504787433-16.459856304763       0       0
  100010.451624022561461-29.823504787433 -21.63243865336       0       0
  1000111.43860040328253-29.823504787433-21.042849868708       0       0
  100012-6.3665027219059-29.823504787433-13.637149330533       0       0
  100013-7.8390088508219-29.823504787433-14.967870394879       0       0
  100014-11.053266733698-29.823504787433-10.664592292487       0       0
  100015-9.9500283963757-29.823504787433-9.6681113129231       0       0
  100016-11.063034446711-29.823504787433-8.6859851901386       0       0
  100017-11.642598007979-29.823504787433-9.6806829995533       0       0
  100018-7.6484327066933-29.823504787433-12.232340321831       0       0
  100019-9.1046732055795-29.823504787433-13.446817585614       0       0
$ ... 1947 like lines cut
*ELEMENT_SHELL
  100000      31  100000  100001  100002  100003
  100001      31  100004  100005  100001  100000
  100002      31  100003  100002  100006  100007
  100003      31  100007  100006  100008  100009
  100004      31  100010  100011  100005  100004
  100005      31  100009  100008  100012  100013
  100006      31  100014  100015  100016  100017
  100007      31  100013  100012  100018  100019
  100008      31  100019  100018  100020  100021
  100009      31  100021  100020  100015  100014
  100010      31  100001  100022  100023  100002
  100011      31  100005  100024  100022  100001
  100012      31  100002  100023  100025  100006
  100013      31  100011  100026  100024  100005
  100014      31  100006  100025  100027  100008
  100015      31  100008  100027  100028  100012
  100016      31  100015  100029  100030  100016
  100017      31  100012  100028  100031  100018
  100018      31  100020  100032  100029  100015
  100019      31  100018  100031  100032  100020
$ ... 240 like lines cut
*ELEMENT_SOLID
  100260      30
  100086  100087  100098  100097  100281  100282  100283  100284       0       0
  100261      30
  100265  100266  100270  100269  100285  100286  100287  100288       0       0
  100262      30
  100013  100265  100269  100019  100289  100285  100288  100290       0       0
  100263      30
  100269  100270  100274  100273  100288  100287  100291  100292       0       0
  100264      30
  100266  100267  100271  100270  100286  100293  100294  100287       0       0
  100265      30
  100261  100262  100266  100265  100295  100296  100286  100285       0       0
  100266      30
  100013  100019  100018  100012  100289  100290  100297  100298       0       0
  100267      30
  100019  100269  100273  100021  100290  100288  100292  100299       0       0
  100268      30
  100009  100261  100265  100013  100300  100295  100285  100289       0       0
  100269      30
  100273  100274  100278  100277  100292  100291  100301  100302       0       0
$ ... 3100 like lines cut
*PART
Silicon
        30        30        30                   1         0         0          
*SECTION_SOLID_TITLE
Silicon
        30         1
*PART
Impactor upper surface
        31        31        31                             0         0          
*SECTION_SHELL_TITLE
Impactor upper surface
        31         2        1.        2.        1.         0         0
        1.        1.        1.        1.                            0.          
*DEFINE_COORDINATE_SYSTEM_TITLE
Coordinate system on C.O.G. created from D.INFO
         1.351312696-29.782769-9.5801772.351312696-30.782769-9.5801772
1.34690603-29.782769-9.6739531
*MAT_OGDEN_RUBBER_TITLE
Silicon (Shergold et el 2006) 40s-1 B452
        30     2.E-6     0.499         0                                      0.
    0.0004                                                                      
        3.                                                                      
*MAT_RIGID_TITLE
Rigid mat 3.68kg
        31 0.0029483      210.       0.3        0.        0.        0.
       1.0        6.        7.
        0.        0.        0.        0.        0.        0.
*HOURGLASS_TITLE
HG=2
         1         2       0.1         0       1.5      0.06       0.1       0.1
*SET_NODE_LIST
         1                                              0.06       0.1       0.1
    100000    100001    100002    100003    100004    100005    100006    100007
    100008    100009    100010    100011    100012    100013    100014    100015
    100016    100017    100018    100019    100020    100021    100022    100023
    100024    100025    100026    100027    100028    100029    100030    100031
    100032    100033    100034    100035    100036    100037    100038    100039
    100040    100041    100042    100043    100044    100045    100046    100047
    100048    100049    100050    100051    100052    100053    100054    100055
    100056    100057    100058    100059    100060    100061    100062    100063
    100064    100065    100066    100067    100068    100069    100070    100071
    100072    100073    100074    100075    100076    100077    100078    100079
    100080    100081    100082    100083    100084    100085    100086    100087
    100088    100089    100090    100091    100092    100093    100094    100095
    100096    100097    100098    100099    100100    100101    100102    100103
    100104    100105    100106    100107    100108    100109    100110    100111
    100112    100113    100114    100115    100116    100117    100118    100119
    100120    100121    100122    100123    100124    100125    100126    100127
    100128    100129    100130    100131    100132    100133    100134    100135
    100136    100137    100138    100139    100140    100141    100142    100143
    100144    100145    100146    100147    100148    100149    100150    100151
$ ... 227 like lines cut
$ANSA_COLOR;30;SECTION_SOLID;.862745106220245;.768627464771271;.835294127464294;
$1.;
$ANSA_COLOR;31;SECTION_SHELL;.819607853889465;.658823549747467;.368627458810806;
$1.;
$ANSA_COLOR;30;MAT77 MAT_OGDEN_RUBBER;.854901969432831;0.5686274766922;.79215687
$5133514;1.;
$ANSA_COLOR;31;MAT20 MAT_RIGID;.972549021244049;.905882358551025;.33333334326744
$1;1.;
$ANSA_USER_ATTRIBUTES;SECTION_SHELL;User/cad_material;TEXT;RW;YES;;;
$ANSA_USER_ATTRIBUTES;SECTION_SHELL;User/cad_thickness;TEXT;RW;YES;;;
$ANSA_USER_ATTRIBUTES;SECTION_SOLID;User/cad_material;TEXT;RW;YES;;;
$ANSA_PART;GROUP;ID;1;MID;600000;NAME;Pelvis - Model;BELONGS_HERE;YES;PID_OFFSET
$;0;COLOR;244;26;34;0;IS_COLOR_ACTIVE;1;PART_TYPE;Undefined;ATTRIBUTES;2;DM/File
$ Type;ANSA;DM/Status;WIP;CONTAINS;ANSAGROUP;1178;
$ANSA_PART;GROUP;ID;1178;NAME;Pelvic-Bone;BELONGS_HERE;YES;PID_OFFSET;0;COLOR;23
$2;173;96;0;IS_COLOR_ACTIVE;1;PART_TYPE;Undefined;ATTRIBUTES;2;DM/File Type;ANSA
$;DM/Status;WIP;CONTAINS;ANSAPART;1177;
$ANSA_PART;PART;ID;1177;MID;601030;NAME;Pelvis-Acetabulum;BELONGS_HERE;YES;STUDY
$_VERSION;0;PID_OFFSET;0;COLOR;139;69;0;0;IS_COLOR_ACTIVE;1;PART_TYPE;Undefined;
$ATTRIBUTES;2;DM/File Type;ANSA;DM/Status;WIP;CONTAINS;SECTION_SHELL;31;
$ANSA_PART;PART;ID;1179;NAME;Untitled;BELONGS_HERE;YES;STUDY_VERSION;0;PID_OFFSE
$T;0;COLOR;160;105;10;0;IS_COLOR_ACTIVE;-1;PART_TYPE;Undefined;ATTRIBUTES;2;DM/F
$ile Type;ANSA;DM/Status;WIP;CONTAINS;SECTION_SOLID;30;
*END
