$
$ANSA_VERSION;22.1.5;
$
$
$ file created by  A N S A  Mon Mar 27 08:53:08 2023
$
$ output from :
$
$ C:/Users/erikeli/Box/PhD/3_PhD-Project/4_Projects/IHBM4/WP2/2_Analysis/VALIDAT
$ ION/Pelvis_validation_setups_for_S-HBM/Guillemot_1998/simulation/Acetabulum_st
$ atic/Untitled
$
$ Settings :
$
$ Output format : R13
$
$ Output : Visible
$
$
$
$
*KEYWORD
*NODE
   7000065.155501748254270.6842797678196-19.015773851168       0       0
   7000165.150473074591672.1876429513006-20.421725914451       0       0
   70002 67.35103066893472.1873278409138-20.276798301762       0       0
   7000367.167018885347970.6814903602151-18.880868080738       0       0
   7000465.1341515788813 73.811857019496-21.675662088664       0       0
   7000567.514673659457773.8117385662115-21.519790220052       0       0
   7000665.126223308143375.5502025688911-22.767899691292       0       0
   7000767.657204884095875.5502862383152-22.602422355787       0       0
   7000865.130016464960177.3869444062366-23.694289792282       0       0
   7000967.778118648264677.3870527377424-23.520853577259       0       0
   7001069.526423696091872.1873278409138-19.844085724748       0       0
   7001169.160675456901270.6793496193338-18.482327682146       0       0
   7001265.136101799786879.3027996689091-24.446878977408       0       0
   7001367.876371149125579.3028417411139-24.267155414759       0       0
   7001469.850909700201373.8117385662115-21.055083978429       0       0
   7001570.133533400706775.5502862383153-22.109849988138       0       0
   7001665.137948391146681.2794383636459-25.018902764731       0       0
   7001767.951063465140781.2794167754779-24.834499881318       0       0
   7001870.373292061015877.3870527377421-23.004641489968       0       0
   7001971.626725609332972.1873278409138  -19.1311292954       0       0
$ ... 1399 like lines cut
*ELEMENT_SHELL
   70000      10   70000   70001   70002   70003
   70001      10   70001   70004   70005   70002
   70002      10   70004   70006   70007   70005
   70003      10   70006   70008   70009   70007
   70004      10   70003   70002   70010   70011
   70005      10   70008   70012   70013   70009
   70006      10   70002   70005   70014   70010
   70007      10   70005   70007   70015   70014
   70008      10   70012   70016   70017   70013
   70009      10   70007   70009   70018   70015
   70010      10   70011   70010   70019   70020
   70011      10   70010   70014   70021   70019
   70012      10   70016   70022   70023   70017
   70013      10   70009   70013   70024   70018
   70014      10   70014   70015   70025   70021
   70015      10   70013   70017   70026   70024
   70016      10   70022   70027   70028   70023
   70017      10   70020   70019   70029   70030
   70018      10   70015   70018   70031   70025
   70019      10   70019   70021   70032   70029
$ ... 1397 like lines cut
*PART
Ball impactor
        10        10        10                             0         0          
*SECTION_SHELL_TITLE
Ball impactor
        10         2        1.        2.        1.         0         0
       0.5       0.5       0.5       0.5                            0.          
*MAT_RIGID_TITLE
Ball impactor
        10 0.0001164      210.       0.3        0.        0.        0.
       1.0        0.        7.
        0.        0.        0.        0.        0.        0.
$ANSA_COLOR;10;SECTION_SHELL;.996078431606293;.494117647409439;.764705896377563;
$1.;
$ANSA_COLOR;10;MAT20 MAT_RIGID;.643137276172638;.690196096897125;.75686275959014
$9;1.;
$ANSA_USER_ATTRIBUTES;SECTION_SHELL;User/cad_material;TEXT;RW;YES;;;
$ANSA_USER_ATTRIBUTES;SECTION_SHELL;User/cad_thickness;TEXT;RW;YES;;;
$ANSA_PART;GROUP;ID;1;MID;600000;NAME;Pelvis - Model;BELONGS_HERE;YES;PID_OFFSET
$;0;COLOR;244;26;34;0;IS_COLOR_ACTIVE;1;PART_TYPE;Undefined;ATTRIBUTES;1;DM/File
$ Type;ANSA;CONTAINS;ANSAGROUP;1178;
$ANSA_PART;GROUP;ID;1178;NAME;Pelvic-Bone;BELONGS_HERE;YES;PID_OFFSET;0;COLOR;23
$2;173;96;0;IS_COLOR_ACTIVE;1;PART_TYPE;Undefined;ATTRIBUTES;1;DM/File Type;ANSA
$;CONTAINS;ANSAPART;1177;
$ANSA_PART;PART;ID;1177;MID;601030;NAME;Pelvis-Acetabulum;BELONGS_HERE;YES;STUDY
$_VERSION;0;PID_OFFSET;0;COLOR;139;69;0;0;IS_COLOR_ACTIVE;1;PART_TYPE;Undefined;
$ATTRIBUTES;1;DM/File Type;ANSA;CONTAINS;SECTION_SHELL;10;
*END
