$
$ANSA_VERSION;22.1.0;
$
$
$ file created by  A N S A  Mon Apr  3 16:16:16 2023
$
$ output from :
$
$ C:/Work/SOT/SAFER_HBM_validation/Neck-Kang-2018/dyna/Untitled
$
$ Settings :
$
$ Output format : R12
$
$ Output : All
$
$
$
$
*KEYWORD
*NODE
   70000-157.36304333144        -49.227815.5652990659605       0       0
   70001-160.36771083373        -49.227815.5652990659605       0       0
   70002-160.36771083373        -49.227818.5289233878433       0       0
   70003-157.36304333144        -49.227818.5289233878433       0       0
   70004-160.36771083373        -49.227821.4925477097262       0       0
   70005-157.36304333144        -49.227821.4925477097262       0       0
   70006-154.35837582916        -49.227815.5652990659605       0       0
   70007-154.35837582916        -49.227818.5289233878433       0       0
   70008-160.36771083373        -49.227824.4561720316091       0       0
   70009-157.36304333144        -49.227824.4561720316091       0       0
   70010-154.35837582916        -49.227821.4925477097262       0       0
   70011-151.35370832688        -49.227815.5652990659605       0       0
   70012-151.35370832688        -49.227818.5289233878433       0       0
   70013-160.36771083373        -49.2278 27.419796353492       0       0
   70014-157.36304333144        -49.2278 27.419796353492       0       0
   70015-154.35837582916        -49.227824.4561720316091       0       0
   70016-151.35370832688        -49.227821.4925477097262       0       0
   70017 -148.3490408246        -49.227815.5652990659605       0       0
   70018 -148.3490408246        -49.227818.5289233878433       0       0
   70019-160.36771083373        -49.227830.3834206753749       0       0
$ ... 2620 like lines cut
*ELEMENT_SHELL
   70000      10   70000   70001   70002   70003
   70001      10   70003   70002   70004   70005
   70002      10   70006   70000   70003   70007
   70003      10   70005   70004   70008   70009
   70004      10   70007   70003   70005   70010
   70005      10   70011   70006   70007   70012
   70006      10   70009   70008   70013   70014
   70007      10   70010   70005   70009   70015
   70008      10   70012   70007   70010   70016
   70009      10   70017   70011   70012   70018
   70010      10   70014   70013   70019   70020
   70011      10   70015   70009   70014   70021
   70012      10   70016   70010   70015   70022
   70013      10   70018   70012   70016   70023
   70014      10   70024   70017   70018   70025
   70015      10   70020   70019   70026   70027
   70016      10   70021   70014   70020   70028
   70017      10   70022   70015   70021   70029
   70018      10   70023   70016   70022   70030
   70019      10   70025   70018   70023   70031
$ ... 2515 like lines cut
*PART
Plane impactor
$      PID|    SECID|      MID|         |     HGID|     GRAV|   ADPOPT|     TMID|
        10        10        10                             0         0          
*SECTION_SHELL_TITLE
Plane impactor
$    SECID|   ELFORM|     SHRF|      NIP|    PROPT|  QR/IRID|    ICOMP|
        10         2        1.        2.        1.         0         0
$       T1|       T2|       T3|       T4|     NLOC|    MAREA|     IDOF|   EDGSET|
       0.5       0.5       0.5       0.5                            0.          
*MAT_RIGID_TITLE
Plane impactor
$      MID|       RO|        E|       PR|        N|   COUPLE|        M| ALIAS_RE|
        10   7.85E-6      210.       0.3        0.        0.        0.
$      CMO|     CON1|     CON2|
       1.0        0.        7.
$       A1|       A2|       A3|       V1|       V2|       V3|
        0.        0.        0.        0.        0.        0.
*DEFINE_CURVE_TITLE
BC curve
      1000         0        1.        1.        0.        0.         0         0
                  0.                  0.
              10000.                  0.
*DEFINE_CURVE_TITLE
Impactor ball velocity curve
      1001         0        1.        1.        0.        0.         0         0
                  0.                  0.
                0.05           0.0061555
                 0.1           0.0244703
                0.15           0.0544936
                 0.2           0.0954861
                0.25           0.1464384
                 0.3           0.2060961
                0.35           0.2729903
                 0.4           0.3454739
                0.45           0.4217622
                 0.5           0.4999768
                0.55           0.5781921
                 0.6           0.6544821
                0.65           0.7269684
                 0.7           0.7938664
                0.75           0.8535288
                 0.8           0.9044867
                0.85           0.9454854
                 0.9           0.9755154
                0.95           0.9938373
                  1.                  1.
              10000.                  1.
*END
