$
$ANSA_VERSION;21.1.1;
$
$
$ file created by  A N S A  Thu Nov 18 19:22:40 2021
$
$ output from :
$
$ C:/Users/erikeli/Box/PhD/3_PhD-Project/4_Projects/IHBM4/WP2/2_Analysis/CEESAR_
$ Guillemot_study/simulations/acetabulum_static/avg_F/Untitled
$
$ Settings :
$
$ Output format : R12
$
$ Output : All
$
$
$
$
*KEYWORD
*NODE
       1-170.97625479005229.375599999999-91.756708402431       0       0
       2-170.97625479005229.375599999999-101.75670840243       0       0
       3-160.97625479005229.375599999999-101.75670840243       0       0
       4-160.97625479005229.375599999999-91.756708402431       0       0
       5-150.97625479005229.375599999999-101.75670840243       0       0
       6-150.97625479005229.375599999999-91.756708402431       0       0
       7-170.97625479005229.375599999999-81.756708402431       0       0
       8-160.97625479005229.375599999999-81.756708402431       0       0
       9-140.97625479005229.375599999999-101.75670840243       0       0
      10-140.97625479005229.375599999999-91.756708402431       0       0
      11-150.97625479005229.375599999999-81.756708402431       0       0
      12-170.97625479005229.375599999999-71.756708402431       0       0
      13-160.97625479005229.375599999999-71.756708402431       0       0
      14-130.97625479005229.375599999999-101.75670840243       0       0
      15-130.97625479005229.375599999999-91.756708402431       0       0
      16-140.97625479005229.375599999999-81.756708402431       0       0
      17-150.97625479005229.375599999999-71.756708402431       0       0
      18-170.97625479005229.375599999999-61.756708402431       0       0
      19-160.97625479005229.375599999999-61.756708402431       0       0
      20-120.97625479005229.375599999999-101.75670840243       0       0
$ ... 6586 like lines cut
*ELEMENT_SHELL
       1      21       1       2       3       4
       2      21       4       3       5       6
       3      21       7       1       4       8
       4      21       6       5       9      10
       5      21       8       4       6      11
       6      21      12       7       8      13
       7      21      10       9      14      15
       8      21      11       6      10      16
       9      21      13       8      11      17
      10      21      18      12      13      19
      11      21      15      14      20      21
      12      21      16      10      15      22
      13      21      17      11      16      23
      14      21      19      13      17      24
      15      21      25      18      19      26
      16      21      21      20      27      28
      17      21      22      15      21      29
      18      21      23      16      22      30
      19      21      24      17      23      31
      20      21      26      19      24      32
$ ... 532 like lines cut
*ELEMENT_SOLID
     553      20
       1       2       3       4    1221    1206    1237    1227       0       0
     554      20
       4       3       5       6    1227    1237    1224    1247       0       0
     555      20
       7       1       4       8    1245    1221    1227    1241       0       0
     556      20
       6       5       9      10    1247    1224    1250    1253       0       0
     557      20
       8       4       6      11    1241    1227    1247    1255       0       0
     558      20
      12       7       8      13    1272    1245    1241    1279       0       0
     559      20
      10       9      14      15    1253    1250    1288    1300       0       0
     560      20
      11       6      10      16    1255    1247    1253    1306       0       0
     561      20
      13       8      11      17    1279    1241    1255    1309       0       0
     562      20
      18      12      13      19    1314    1272    1279    1319       0       0
$ ... 11020 like lines cut
*PART
Cerrobend
        20        20        20                             0         0          
*SECTION_SOLID_TITLE
Cerrobend
        20         1
*PART
Support
        21        21        21                             0         0          
*SECTION_SHELL_TITLE
Support
        21         2        1.        2.        1.         0         0
        1.        1.        1.        1.                            0.          
*BOUNDARY_PRESCRIBED_MOTION_RIGID_ID
      1002Support BC                                                            
        21         2         1      1002        0.         0                  0.
*MAT_PIECEWISE_LINEAR_PLASTICITY_TITLE
Cerrobend (Wood's metal) - Kim et al. (2006) "Evaluation of Filler Materials Us
        20    9.4E-6      12.7       0.3    0.0262        0.     1.E20        0.
        0.        0.                            0.
        0.    0.0012    0.0024    0.0051    0.0086    0.0137    0.0186    0.0227
    0.0262     0.038     0.046     0.054      0.06     0.063     0.065     0.066
*MAT_RIGID_TITLE
Support
        21   7.85E-6      210.       0.3        0.        0.        0.
       1.0        6.        7.
        0.        0.        0.        0.        0.        0.
*DEFINE_CURVE_TITLE
BC curve
      1002         0        1.        1.        0.        0.         0         0
                  0.                  0.
              10000.                  0.
$ANSA_COLOR;20;SECTION_SOLID;.701960802078247;.517647087574005;.172549024224281;
$1.;
$ANSA_COLOR;21;SECTION_SHELL;.552941203117371;0.74117648601532;0.14509804546833;
$1.;
$ANSA_COLOR;20;MAT24 MAT_PIECEWISE_LINEAR_PLASTICITY;.580392181873322;.501960813
$999176;.498039215803146;1.;
$ANSA_COLOR;21;MAT20 MAT_RIGID;.988235294818878;.921568632125854;0.3058823645114
$9;1.;
$ANSA_USER_ATTRIBUTES;SECTION_SHELL;User/cad_material;TEXT;RW;YES;;;
$ANSA_USER_ATTRIBUTES;SECTION_SHELL;User/cad_thickness;TEXT;RW;YES;;;
$ANSA_USER_ATTRIBUTES;SECTION_SOLID;User/cad_material;TEXT;RW;YES;;;
$ANSA_PART;PART;ID;6;NAME;Untitled;BELONGS_HERE;YES;STUDY_VERSION;0;PID_OFFSET;0
$;COLOR;216;22;148;0;IS_COLOR_ACTIVE;-1;PART_TYPE;Undefined;ATTRIBUTES;2;DM/File
$ Type;ANSA;DM/Status;WIP;CONTAINS;SECTION_SHELL;21;SECTION_SOLID;20;
*END
