$
$ANSA_VERSION;22.1.0;
$
$
$ file created by  A N S A  Tue Apr 11 13:41:07 2023
$
$ output from :
$
$ C:/Work/SOT/SAFER_HBM_validation/Lumbar-Yamamoto-1990/dyna/Untitled
$
$ Settings :
$
$ Output format : R13
$
$ Output : All
$
$
$
$
*KEYWORD
*NODE
 1000000      -36.878983       23.168922      -24.232847       0       0
 1000001       -45.91521       23.167156      -24.232847       0       0
 1000002       -45.95345       32.278214      -24.232847       0       0
 1000003      -36.896904       32.302666      -24.232847       0       0
 1000004       -27.87225       23.153204      -24.232847       0       0
 1000005       -27.86011        32.28067      -24.232847       0       0
 1000006       -36.87355       14.121633      -24.232847       0       0
 1000007      -45.909603       14.124878      -24.232847       0       0
 1000008      -54.996243       23.163559      -24.232847       0       0
 1000009       -55.02337       32.228584      -24.232847       0       0
 1000010        -46.0562       41.516838      -24.232847       0       0
 1000011      -36.937046       41.588943      -24.232847       0       0
 1000012      -18.880623       23.120987      -24.232847       0       0
 1000013      -18.849686       32.213696      -24.232847       0       0
 1000014      -27.873436       14.112214      -24.232847       0       0
 1000015      -27.824827         41.5607      -24.232847       0       0
 1000016      -36.874283       5.1118383      -24.232847       0       0
 1000017       -45.91631        5.109657      -24.232847       0       0
 1000018      -55.011185       14.131476      -24.232847       0       0
 1000019       -64.14436       23.191988      -24.232847       0       0
$ ... 3948 like lines cut
*ELEMENT_SHELL
 1000000      12 1000000 1000001 1000002 1000003
 1000001      12 1000004 1000000 1000003 1000005
 1000002      12 1000006 1000007 1000001 1000000
 1000003      12 1000001 1000008 1000009 1000002
 1000004      12 1000003 1000002 1000010 1000011
 1000005      12 1000012 1000004 1000005 1000013
 1000006      12 1000014 1000006 1000000 1000004
 1000007      12 1000005 1000003 1000011 1000015
 1000008      12 1000016 1000017 1000007 1000006
 1000009      12 1000007 1000018 1000008 1000001
 1000010      12 1000008 1000019 1000020 1000009
 1000011      12 1000002 1000009 1000021 1000010
 1000012      12 1000011 1000010 1000022 1000023
 1000013      12 1000024 1000012 1000013 1000025
 1000014      12 1000026 1000014 1000004 1000012
 1000015      12 1000013 1000005 1000015 1000027
 1000016      12 1000028 1000016 1000006 1000014
 1000017      12 1000015 1000011 1000023 1000029
 1000018      12 1000030 1000031 1000017 1000016
 1000019      12 1000017 1000032 1000018 1000007
$ ... 445 like lines cut
*ELEMENT_SOLID
 1001395      10
 1000992 1000993 1000994 1000995 1000996 1000997 1000998 1000999       0       0
 1001396      10
 1001000 1001001 1001002 1001003 1001004 1001005 1001006 1001007       0       0
 1001397      10
 1001002 1001008 1001009 1001010 1001006 1001011 1001012 1001013       0       0
 1001398      10
 1001014 1001015 1001016 1001017 1001018 1001019 1001020 1001021       0       0
 1001399      10
 1001022 1001023 1001024 1001015 1001025 1001026 1001027 1001019       0       0
 1001400      10
 1001028 1001029 1001030 1001001 1001031 1001032 1001033 1001005       0       0
 1001401      10
 1001034 1001035 1001022 1001036 1001037 1001038 1001025 1001039       0       0
 1001402      10
 1001040 1001041 1001042 1001029 1001043 1001044 1001045 1001032       0       0
 1001403      10
 1001046 1001047 1001034 1001048 1001049 1001050 1001037 1001051       0       0
 1001404      10
 1001052 1001053 1001054 1001041 1001055 1001056 1001057 1001044       0       0
$ ... 6490 like lines cut
*PART
Lower potting
$      PID|    SECID|      MID|    EOSID|     HGID|     GRAV|   ADPOPT|     TMID|
        10        10        19                             0         0          
*SECTION_SOLID_TITLE
Lower potting
$    SECID|   ELFORM|
        10         1
*PART
Lower potting lower
$      PID|    SECID|      MID|    EOSID|     HGID|     GRAV|   ADPOPT|     TMID|
        11        11        19                             0         0          
*SECTION_SOLID_TITLE
Lower potting lower
$    SECID|   ELFORM|
        11         1
*PART
Lower potting fixed
$      PID|    SECID|      MID|         |     HGID|     GRAV|   ADPOPT|     TMID|
        12        12        12                             0         0          
*SECTION_SHELL_TITLE
Lower potting fixed
$    SECID|   ELFORM|     SHRF|      NIP|    PROPT|  QR/IRID|    ICOMP|
        12         2        1.        2.        1.         0         0
$       T1|       T2|       T3|       T4|     NLOC|    MAREA|     IDOF|   EDGSET|
        1.        1.        1.        1.                            0.          
*MAT_RIGID_TITLE
Lower potting
$      MID|       RO|        E|       PR|        N|   COUPLE|        M| ALIAS_RE|
        12     1.E-6       10.       0.3        0.        0.        0.
$      CMO|     CON1|     CON2|
       0.0                    
$       A1|       A2|       A3|       V1|       V2|       V3|
        0.        0.        0.        0.        0.        0.
*MAT_ELASTIC_TITLE
Potting material
$      MID|       RO|        E|       PR|       DA|       DB|        K|
        19    1.5E-6        2.       0.3        0.        0.        0.
*SET_PART_LIST
    300005                                        
        10
$ANSA_COLOR;10;SECTION_SOLID;.556862771511078;.650980412960052;.321568638086319;
$1.;
$ANSA_COLOR;11;SECTION_SOLID;.639215707778931;.027450980618596;.470588237047195;
$1.;
$ANSA_COLOR;12;SECTION_SHELL;0.61176472902298;0.47843137383461;.317647069692612;
$1.;
$ANSA_COLOR;12;MAT20 MAT_RIGID;.690196096897125;0.23137255012989;.88235294818878
$2;1.;
$ANSA_COLOR;19;MAT1 MAT_ELASTIC;.725490212440491;.011764706112444;.1098039224743
$84;1.;
*END
