$
$ANSA_VERSION;22.1.0;
$
$
$ file created by  A N S A  Tue Apr 11 13:27:05 2023
$
$ output from :
$
$ C:/Work/SOT/SAFER_HBM_validation/Lumbar-Yamamoto-1990/dyna/Untitled
$
$ Settings :
$
$ Output format : R13
$
$ Output : Visible
$
$
$
$
*KEYWORD
*NODE
 1000496       -70.36461      -12.821659       287.07355       0       0
 1000497       -74.01154      -12.694987       287.07355       0       0
 1000498       -74.04384      -16.300783       287.07355       0       0
 1000499        -70.5195      -16.366001       287.07355       0       0
 1000500       -70.20176       -9.185329       287.07355       0       0
 1000501        -73.9462       -9.053623       287.07355       0       0
 1000502       -77.64178      -12.659409       287.07355       0       0
 1000503       -77.60986      -16.331974       287.07355       0       0
 1000504      -73.985176      -19.871029       287.07355       0       0
 1000505       -70.59872      -19.795746       287.07355       0       0
 1000506       -66.66603      -13.101238       287.07355       0       0
 1000507       -67.01579      -16.611195       287.07355       0       0
 1000508        -70.0747      -5.4841247       287.07355       0       0
 1000509       -73.88624      -5.3852015       287.07355       0       0
 1000510       -77.63256       -8.995234       287.07355       0       0
 1000511       -66.35593       -9.432744       287.07355       0       0
 1000512      -81.273895      -12.670059       287.07355       0       0
 1000513        -81.2215      -16.401949       287.07355       0       0
 1000514       -77.49156       -20.02785       287.07355       0       0
 1000515      -73.751495      -23.422815       287.07355       0       0
$ ... 3948 like lines cut
*ELEMENT_SHELL
 1000465      22 1000496 1000497 1000498 1000499
 1000466      22 1000500 1000501 1000497 1000496
 1000467      22 1000497 1000502 1000503 1000498
 1000468      22 1000499 1000498 1000504 1000505
 1000469      22 1000506 1000496 1000499 1000507
 1000470      22 1000508 1000509 1000501 1000500
 1000471      22 1000501 1000510 1000502 1000497
 1000472      22 1000511 1000500 1000496 1000506
 1000473      22 1000502 1000512 1000513 1000503
 1000474      22 1000498 1000503 1000514 1000504
 1000475      22 1000505 1000504 1000515 1000516
 1000476      22 1000507 1000499 1000505 1000517
 1000477      22 1000518 1000506 1000507 1000519
 1000478      22 1000520 1000521 1000509 1000508
 1000479      22 1000509 1000522 1000510 1000501
 1000480      22 1000523 1000508 1000500 1000511
 1000481      22 1000510 1000524 1000512 1000502
 1000482      22 1000525 1000511 1000506 1000518
 1000483      22 1000512 1000526 1000527 1000513
 1000484      22 1000503 1000513 1000528 1000514
$ ... 910 like lines cut
*ELEMENT_SOLID
 1004650      20
 1004464 1004465 1004466 1004467 1004468 1004469 1004470 1004471       0       0
 1004651      20
 1004472 1004473 1004474 1004475 1004476 1004477 1004478 1004479       0       0
 1004652      20
 1004480 1004481 1004482 1004483 1004484 1004485 1004486 1004487       0       0
 1004653      20
 1004488 1004489 1004490 1004491 1004492 1004493 1004494 1004495       0       0
 1004654      20
 1004496 1004467 1004497 1004498 1004499 1004471 1004500 1004501       0       0
 1004655      20
 1004502 1004503 1004504 1004505 1004506 1004507 1004508 1004509       0       0
 1004656      20
 1004490 1004510 1004511 1004512 1004494 1004513 1004514 1004515       0       0
 1004657      20
 1004516 1004498 1004517 1004518 1004519 1004501 1004520 1004521       0       0
 1004658      20
 1004522 1004523 1004524 1004525 1004526 1004527 1004528 1004529       0       0
 1004659      20
 1004530 1004518 1004531 1004532 1004533 1004521 1004534 1004535       0       0
$ ... 6490 like lines cut
*PART
Upper potting
$      PID|    SECID|      MID|    EOSID|     HGID|     GRAV|   ADPOPT|     TMID|
        20        20        10                             0         0          
*SECTION_SOLID_TITLE
Upper potting
$    SECID|   ELFORM|
        20         1
*PART
Upper potting upper
$      PID|    SECID|      MID|    EOSID|     HGID|     GRAV|   ADPOPT|     TMID|
        21        21        10                             0         0          
*SECTION_SOLID_TITLE
Upper potting upper
$    SECID|   ELFORM|
        21         1
*PART
Upper potting prescribed
$      PID|    SECID|      MID|         |     HGID|     GRAV|   ADPOPT|     TMID|
        22        22        22                             0         0          
*SECTION_SHELL_TITLE
Upper potting prescribed
$    SECID|   ELFORM|     SHRF|      NIP|    PROPT|  QR/IRID|    ICOMP|
        22         2        1.        2.        1.         0         0
$       T1|       T2|       T3|       T4|     NLOC|    MAREA|     IDOF|   EDGSET|
        1.        1.        1.        1.                            0.          
*MAT_ELASTIC_TITLE
Potting material
$      MID|       RO|        E|       PR|       DA|       DB|        K|
        10    1.5E-6        2.       0.3        0.        0.        0.
*MAT_RIGID_TITLE
Upper potting
$      MID|       RO|        E|       PR|        N|   COUPLE|        M| ALIAS_RE|
        22     1.E-6       10.       0.3        0.        0.        0.
$      CMO|     CON1|     CON2|
       0.0                    
$       A1|       A2|       A3|       V1|       V2|       V3|
        0.        0.        0.        0.        0.        0.
*SET_PART_LIST
    300003                                        
        20
$ANSA_COLOR;20;SECTION_SOLID;.749019622802734;.113725490868092;.423529416322708;
$1.;
$ANSA_COLOR;21;SECTION_SOLID;.729411780834198;.290196090936661;.372549027204514;
$1.;
$ANSA_COLOR;22;SECTION_SHELL;.941176474094391;.466666668653488;.850980401039124;
$1.;
$ANSA_COLOR;10;MAT1 MAT_ELASTIC;.588235318660736;.192156866192818;.9019607901573
$18;1.;
$ANSA_COLOR;22;MAT20 MAT_RIGID;.592156887054443;.768627464771271;.93725490570068
$4;1.;
*END
