$
$ANSA_VERSION;21.1.1;
$
$
$ file created by  A N S A  Mon Aug 16 10:33:36 2021
$
$ output from :
$
$ C:/Users/erikeli/Untitled
$
$ Settings :
$
$ Output format : R12
$
$ Output : All
$
$
$
$
*KEYWORD
*NODE
   1000061.093950843965223.071251248782779.5959910964374       0       0
   1000161.09395084396523.5527136788E-1563.5959910964374       0       0
   1000261.093950843965219.226042707318979.5959910964374       0       0
   1000361.09395084396523.5527136788E-1523.5959910964374       0       0
   1000461.093950843965215.380834165855179.5959910964374       0       0
   1000565.093950843965211.535625624391391.5959910964374       0       0
   1000661.093950843965211.535625624391379.5959910964374       0       0
   1000761.09395084396527.6904170829275679.5959910964374       0       0
   1000861.0939508439652-3.845208541463823.5959910964374       0       0
   1000965.09395084396523.8452085414637763.5959910964374       0       0
   1001061.0939508439652-23.07125124878327.5959910964374       0       0
   1001161.09395084396523.8452085414637779.5959910964374       0       0
   1001261.09395084396527.69041708292756-8.4040089035626       0       0
   1001361.09395084396523.5527136788E-1579.5959910964374       0       0
   1001461.09395084396523.84520854146377-8.4040089035626       0       0
   1001561.0939508439652-7.690417082927539.5959910964374       0       0
   1001661.0939508439652-7.690417082927535.5959910964374       0       0
   1001765.093950843965219.226042707318983.5959910964374       0       0
   1001861.0939508439652-3.845208541463879.5959910964374       0       0
   1001965.0939508439652-11.535625624391107.595991096437       0       0
$ ... 10445 like lines cut
*ELEMENT_SHELL
   10000      11   20318   19746   20422   19646
   10001      11   19746   20087   10053   20422
   10002      11   20087   19970   10442   10053
   10003      11   10439   10411   10455   10456
   10004      11   10411   10440   10457   10455
   10005      11   10440   10416   10458   10457
   10006      11   10416   10441   10459   10458
   10007      11   10441   20053   20439   10459
   10008      11   20053   20258   20418   20439
   10009      11   19970   19800   10423   10442
   10010      11   20258   20282   19797   20418
   10011      11   20282   10443   10460   19797
   10012      11   19800   10461   20266   10423
   10013      11   10443   10034   20110   10460
   10014      11   10034   10105   10462   20110
   10015      11   10461   19741   19632   20266
   10016      11   10105   10103   10428   10462
   10017      11   10103   20270   10429   10428
   10018      11   10446   10445   10451   19706
   10019      11   10445   20039   10452   10451
$ ... 2556 like lines cut
*ELEMENT_SOLID
   11553      10
   14029   17511   17519   17512   10738   10734   10733   10752       0       0
   11554      10
   17503   15156   17518   17511   10747   10741   10761   10734       0       0
   11555      10
   17502   17510   17517   15156   10758   10757   10769   10741       0       0
   11556      10
   15900   17508   17515   17516   10786   10796   10797   10800       0       0
   11557      10
   17500   16257   17514   17508   10804   10805   10811   10796       0       0
   11558      10
   17499   17507   16097   16257   10812   10814   10819   10805       0       0
   11559      10
   15908   17506   13590   17507   10821   10823   10826   10814       0       0
   11560      10
   15649   15472   17513   17506   10828   10831   10834   10823       0       0
   11561      10
   11153   12546   13701   15472   10837   10838   10839   10831       0       0
   11562      10
   17498   17505   16132   12546   10844   10849   10853   10838       0       0
$ ... 17932 like lines cut
*PART
Cerrobend pot
        10        10        10                             0         0          
*SECTION_SOLID_TITLE
Cerrobend pot
        10         1
*PART
Sacrum pot
        11        11        11                             0         0          
*SECTION_SHELL_TITLE
Sacrum pot
        11         2        1.        2.        1.         0         0
        1.        1.        1.        1.                            0.          
*BOUNDARY_PRESCRIBED_MOTION_RIGID_ID
        10Pot BC - X                                                            
        11         1         2        10        1.         0                  0.
        11Pot BC - Y                                                            
        11         2         2        10        1.         0                  0.
        12Pot velocity - Z                                                      
        11         3         0        11       -1.         0                  0.
*MAT_PIECEWISE_LINEAR_PLASTICITY_TITLE
Cerrobend (Wood's metal) - Kim et al. (2006) "Evaluation of Filler Materials Us
        10    9.4E-6      12.7       0.3    0.0262        0.     1.E20        0.
        0.        0.                            0.
        0.    0.0012    0.0024    0.0051    0.0086    0.0137    0.0186    0.0227
    0.0262     0.038     0.046     0.054      0.06     0.063     0.065     0.066
*MAT_RIGID_TITLE
Sacrum pot
        11   7.85E-6      210.       0.3        0.        0.        0.
       1.0        4.        7.
        0.        0.        0.        0.        0.        0.
*DEFINE_CURVE_TITLE
Pot BC curve
        10         0        1.        1.        0.        0.         0         0
                  0.                  0.
                 20.                  0.
*DEFINE_CURVE_TITLE
Pot velocity curve
        11         0        2.        2.        0.        0.         0         0
                  0.                  0.
              0.0526              0.0068
              0.1053              0.0271
              0.1579              0.0603
              0.2105              0.1054
              0.2632              0.1614
              0.3158              0.2265
              0.3684              0.2992
              0.4211              0.3773
              0.4737              0.4587
              0.5263              0.5413
              0.5789              0.6227
              0.6316              0.7008
              0.6842              0.7735
              0.7368              0.8386
              0.7895              0.8946
              0.8421              0.9397
              0.8947              0.9729
              0.9474              0.9932
                  1.                  1.
                200.                  1.
$ANSA_COLOR;10;SECTION_SOLID;.690196096897125;.533333361148834;.898039221763611;
$1.;
$ANSA_COLOR;11;SECTION_SHELL;.541176497936249;.545098066329956;.294117659330368;
$1.;
$ANSA_COLOR;10;MAT24 MAT_PIECEWISE_LINEAR_PLASTICITY;.647058844566345;.211764708
$161354;.839215695858002;1.;
$ANSA_COLOR;11;MAT20 MAT_RIGID;.631372570991516;.545098066329956;.25882354378700
$3;1.;
$ANSA_NAME_COMMENT;11;SECTION_SHELL;Sacrum pot;;YES;NO;NO;NO;
$ANSA_USER_ATTRIBUTES;SECTION_SHELL;User/cad_material;TEXT;RW;YES;;;
$ANSA_USER_ATTRIBUTES;SECTION_SHELL;User/cad_thickness;TEXT;RW;YES;;;
$ANSA_USER_ATTRIBUTES;SECTION_SOLID;User/cad_material;TEXT;RW;YES;;;
$ANSA_PART;PART;ID;6;NAME;Untitled;BELONGS_HERE;YES;STUDY_VERSION;0;PID_OFFSET;0
$;COLOR;216;22;148;0;IS_COLOR_ACTIVE;-1;PART_TYPE;Undefined;ATTRIBUTES;2;DM/File
$ Type;ANSA;DM/Status;WIP;CONTAINS;SECTION_SHELL;11;SECTION_SOLID;10;
*END
