$
$ANSA_VERSION;22.1.0;
$
$
$ file created by  A N S A  Tue Apr 11 08:48:17 2023
$
$ output from :
$
$ C:/Work/SOT/SAFER_HBM_validation/Pelvis-Kemper_2008/SAFER_10.0/Untitled
$
$ Settings :
$
$ Output format : R13
$
$ Output : All
$
$
$
$
*KEYWORD
*NODE
       1  -58.833397647213.2432915975695       -116.9756       0       0
       2 -6.214350028148-62.756708402431       -116.9756       0       0
       3 -50.7381595519669.2432915975697       -116.9756       0       0
       4 -42.64292145672-50.756708402431       -116.9756       0       0
       5 -54.78577859958-78.756708402431       -116.9756       0       0
       6 -30.50006431386-6.7567084024301       -116.9756       0       0
       7-10.261969075767-42.756708402431       -116.9756       0       0
       8 -70.9762547900565.2432915975694       -116.9756       0       0
       9 -62.88101669481-82.756708402431       -116.9756       0       0
      10 -6.21435002814873.2432915975698       -116.9756       0       0
      11-26.452445266243-34.756708402431       -116.9756       0       0
      12-18.35720717100537.2432915975695       -116.9756       0       0
      13 -46.69054050434 -82.75670840243       -116.9756       0       0
      14 -66.92863574243 -54.75670840243       -116.9756       0       0
      15  -38.595302409145.2432915975695       -116.9756       0       0
      16 -46.6905405043421.2432915975698       -116.9756       0       0
      17 -30.50006431386-46.756708402431       -116.9756       0       0
      18 -62.88101669481-14.756708402431       -116.9756       0       0
      19 -62.881016694819.24329159756972       -116.9756       0       0
      20 -54.78577859958-58.756708402431       -116.9756       0       0
$ ... 3108 like lines cut
*ELEMENT_SHELL
       1      21     202     597     590     226
       2      21      73     202     226      46
       3      21     597      61      78     590
       4      21     226     590     582     589
       5      21     624      73      46     614
       6      21      46     226     589     236
       7      21      61     583     112      78
       8      21     590      78     571     582
       9      21     589     582     570     581
      10      21     217     624     614     623
      11      21     614      46     236     605
      12      21     236     589     581     313
      13      21     583      62     559     112
      14      21      78     112     558     571
      15      21     582     571     271     570
      16      21     581     570     257     569
      17      21     189     217     623     636
      18      21     623     614     605      43
      19      21     605     236     313     596
      20      21     313     581     569     302
$ ... 700 like lines cut
*ELEMENT_SOLID
     721      20
     325     601     595      87    1581    1576    1572    1568       0       0
     722      20
     321     142     461     474    1598    1590    1586    1611       0       0
     723      20
     494     321     474     159    1602    1598    1611    1616       0       0
     724      20
     493      89     142     321    1619    1626    1590    1598       0       0
     725      20
     474     461     454     462    1611    1586    1631    1635       0       0
     726      20
     142      17     453     461    1590    1639    1646    1586       0       0
     727      20
     504     494     159     191    1653    1602    1616    1656       0       0
     728      20
     503     493     321     494    1662    1619    1598    1602       0       0
     729      20
     159     474     462     475    1616    1611    1635    1665       0       0
     730      20
     502     492      89     493    1672    1674    1626    1619       0       0
$ ... 4300 like lines cut
*PART
bottom_support
$      PID|    SECID|      MID|    EOSID|     HGID|     GRAV|   ADPOPT|     TMID|
        20        20        20                             0         0          
*SECTION_SOLID_TITLE
bottom_support
$    SECID|   ELFORM|
        20         1
*PART
Support
$      PID|    SECID|      MID|         |     HGID|     GRAV|   ADPOPT|     TMID|
        21        21        21                             0         0          
*SECTION_SHELL_TITLE
Support
$    SECID|   ELFORM|     SHRF|      NIP|    PROPT|  QR/IRID|    ICOMP|
        21         2        1.        2.        1.         0         0
$       T1|       T2|       T3|       T4|     NLOC|    MAREA|     IDOF|   EDGSET|
        1.        1.        1.        1.                            0.          
*BOUNDARY_PRESCRIBED_MOTION_RIGID_ID
        21Support BC                                                            
        21         1         1        21        1.         0                  0.
        22Support BC                                                            
        21         2         0        21        1.         0                  0.
        23Support BC                                                            
        21         3         0        21        1.         0                  0.
        24Support BC                                                            
        21         5         0        21        1.         0                  0.
        25Support BC                                                            
        21         6         0        21        1.         0                  0.
        26Support BC                                                            
        21         7         0        21        1.         0                  0.
*MAT_PIECEWISE_LINEAR_PLASTICITY_TITLE
Cerrobend (Wood's metal) - Kim et al. (2006) "Evaluation of Filler Materials Us
        20    9.4E-6      12.7       0.3    0.0262        0.     1.E20        0.
        0.        0.                            0.
        0.    0.0012    0.0024    0.0051    0.0086    0.0137    0.0186    0.0227
    0.0262     0.038     0.046     0.054      0.06     0.063     0.065     0.066
*MAT_RIGID_TITLE
Support
$      MID|       RO|        E|       PR|        N|   COUPLE|        M| ALIAS_RE|
        21   7.85E-6      210.       0.3        0.        0.        0.
$      CMO|     CON1|     CON2|
       1.0        0.        0.
$       A1|       A2|       A3|       V1|       V2|       V3|
        0.        0.        0.        0.        0.        0.
*DEFINE_CURVE_TITLE
BC curve
        21         0        1.        1.        0.        0.         0         0
                  0.                  0.
                 20.                  0.
*END
