$
$ANSA_VERSION;22.1.0;
$
$
$ file created by  A N S A  Wed May 10 09:28:32 2023
$
$ output from :
$
$ C:/Work/SOT/SAFER_HBM_validation/Thorax-Rib-AP-bending-Kang-2020/SAFER_10.0/Ri
$ b4/Untitled
$
$ Settings :
$
$ Output format : R13
$
$ Output : All
$
$
$
$
$ANSA_COLOR;Kang2020_setup.key;INCLUDE;.984313726425171;.141176477074623;.047058
$824449778;1.;
*KEYWORD
*DEFINE_TRANSFORMATION_TITLE
anterior_pot
$   TRANID|
         2
$   OPTION|       A1|       A2|       A3|
TRANSL            0.        0.&dis      
*DEFINE_TRANSFORMATION_TITLE
post_pot
$   TRANID|
         3
$   OPTION|       A1|       A2|       A3|
TRANSL            0.        0.&post_dist
*INCLUDE_TRANSFORM
anterior_potting.k
         0         0         0         0         0         0         0
         0
                                                 0
         2
*INCLUDE_TRANSFORM
posterior_potting.k
         0         0         0         0         0         0         0
         0
                                                 0
         3
*CONSTRAINED_JOINT_REVOLUTE_ID
      2882Joint_anterior                                                        
      3588      7229      3587      7228                            0.        0.
*CONSTRAINED_JOINT_REVOLUTE_ID
      2884Joint_posterior                                                       
      3585      7226      3586      7227                            0.        0.
*CONSTRAINED_EXTRA_NODES_NODE
        30      3585         0
        30      3586         0
        40      3587         0
        40      3588         0
        42      7229         0
        42      7228         0
        32      7226         0
        32      7227         0
*CONSTRAINED_EXTRA_NODES_SET
        32         8         0
        42         9         0
*BOUNDARY_PRESCRIBED_MOTION_RIGID_ID
         1Motion_anterior_bracket                                               
        40         3         0         1        1.         0                  0.
         2Fixed_posterior_bracket                                               
        30         3         0         2        1.         0                  0.
*MAT_RIGID_TITLE
Bracket rigid posterior
$      MID|       RO|        E|       PR|        N|   COUPLE|        M| ALIAS_RE|
        30   7.85E-6      210.       0.3        0.        0.        0.
$      CMO|     CON1|     CON2|
       1.0        4.        7.
$       A1|       A2|       A3|       V1|       V2|       V3|
        0.        0.        0.        0.        0.        0.
*MAT_PIECEWISE_LINEAR_PLASTICITY_TITLE
Potting material
$      MID|       RO|        E|       PR|     SIGY|     ETAN|     FAIL|     TDEL|
        31     2.E-6       2.2      0.34  1000000.        0.     1.E20        0.
$        C|        P|     LCSS|     LCSR|       VP|
        0.        0.                            0.
$     EPS1|     EPS2|     EPS3|     EPS4|     EPS5|     EPS6|     EPS7|     EPS8|
        0.        0.        0.        0.        0.        0.        0.        0.
$      ES1|      ES2|      ES3|      ES4|      ES5|      ES6|      ES7|      ES8|
        0.        0.        0.        0.        0.        0.        0.        0.
*MAT_RIGID_TITLE
FIXTURE_MAT
$      MID|       RO|        E|       PR|        N|   COUPLE|        M| ALIAS_RE|
        32    2.7E-6       70.      0.35        0.        0.        0.
$      CMO|     CON1|     CON2|
       0.0                    
$       A1|       A2|       A3|       V1|       V2|       V3|
        0.        0.        0.        0.        0.        0.
*MAT_SPRING_ELASTIC_TITLE
MAT_SPRING_ELASTIC Material
$      MID|        K|
        33     1.E-6
*MAT_RIGID_TITLE
Bracket rigid anterior
$      MID|       RO|        E|       PR|        N|   COUPLE|        M| ALIAS_RE|
        40   7.85E-6      210.       0.3        0.        0.        0.
$      CMO|     CON1|     CON2|
       1.0        4.        7.
$       A1|       A2|       A3|       V1|       V2|       V3|
        0.        0.        0.        0.        0.        0.
*DEFINE_CURVE_TITLE
Loading_anterior_bracket
         1         0        1.&Load_spee        0.        0.         0          
                  0.                  0.
                0.05           0.0020449
                 0.1           0.0041744
                0.15           0.0063895
                 0.2           0.0086909
                0.25            0.011079
                 0.3            0.013555
                0.35             0.01612
                 0.4            0.018773
                0.45            0.021514
                 0.5            0.024344
                0.55            0.027263
                 0.6            0.030271
                0.65            0.033366
                 0.7            0.036549
                0.75            0.039819
                 0.8            0.043176
                0.85            0.046618
                 0.9            0.050147
                0.95             0.05376
$ ... 578 like lines cut
*DEFINE_CURVE_TITLE
NoMotion_posterior_bracket
         2            1000000.        1.        0.        0.         0          
                  0.                  0.
                  1.                  0.
*DATABASE_HISTORY_NODE
       282        95      7226      7229      1911
*SET_PART_LIST_TITLE
Potting_anterior
         1                                        
        41
*SET_PART_LIST_TITLE
Potting_posterior
         2                                        
        31
*SET_NODE_LIST_TITLE
SET_NODE_ANTERIOR
         4                                        
      7229      7228      8417      8435      8442      8449      8484      8485
      8489      8490      8504      8524      8525      8526      8528      8529
      8535      8536      8538      8541      8542      8543      8545      8546
      8547      8549      8552      8553      8555      8556      8557      8559
     10804     10805     10808     10762     10857     10858     10859     10826
     10827     10828     10829     10830     10831     10832     10833     10834
     10835     10836     10837     10838     10839     10840     10841     10842
     10843     10844     10845     10846     10847     10848
*SET_NODE_LIST_TITLE
SET_NODE_POSTERIOR
         5                                        
      7226      7227      5516      3626      5592      5519      3936      5579
      5511      5584      5583      5513      5514      5517      5518      5512
      5586      5587      5520      5522      5580      5585      5521      5510
      5590      5591      5508      5509      5589      5595      5593      5594
      4098      3635      3767      3945      3639      3951      3959      3628
      3638      3641      3647      3645      3634      3646      3637      3943
      3947      3633      3944      3954      3948      3949      3955      3632
      3956      3859      3625      3965      3627      3961      3963
*SET_NODE_LIST_TITLE
POSTERIOR_NODAL_RIGID_BODY_NODES
         6                                        
        23        30        31        38        39        40        47        48
        49        50        57        58        59        60        61        69
        70        71        72        80        81        82        89        90
        97
*SET_NODE_LIST_TITLE
ANTERIOR_NODAL_RIGID_BODY_NODES
         7                                        
       265       272       273       280       281       282       289       290
       291       292       300       301       302       303       312       313
       314       323       324       332
*SET_NODE_LIST_TITLE
POSTERIOR_BOTTOM_FIX
         8                                        
       122       123       124       125       126       127       128       129
       130       131       132       133       134       135       136       137
       138       139       140       141       142       143       144       145
       146       147       148       149       150       151       152       153
       154       155       156       157       158       159       160       161
       162       163       164       165       166       167       168       169
       170       171       172       173       174       175       176       177
       178       179       180       181       182       183       184       185
       186       187       188       189       190       191       192       193
       194       195       196       197       198       199       200       201
       202       203       204       205       206       207       208       209
       210       211       212       213       214       215       216       217
       218       219       220       221       222       223       224       225
       226       227       228       229       230       231       232       233
       234       235       236       237       238       239       240       241
       242
*SET_NODE_LIST_TITLE
ANTERIOR_BOTTOM_FIX
         9                                        
       364       365       366       367       368       369       370       371
       372       373       374       375       376       377       378       379
       380       381       382       383       384       385       386       387
       388       389       390       391       392       393       394       395
       396       397       398       399       400       401       402       403
       404       405       406       407       408       409       410       411
       412       413       414       415       416       417       418       419
       420       421       422       423       424       425       426       427
       428       429       430       431       432       433       434       435
       436       437       438       439       440       441       442       443
       444       445       446       447       448       449       450       451
       452       453       454       455       456       457       458       459
       460       461       462       463       464       465       466       467
       468       469       470       471       472       473       474       475
       476       477       478       479       480       481       482       483
       484
$ANSA_COLOR;30;MAT20 MAT_RIGID;.823529422283173;.549019634723663;.21960784494876
$9;1.;
$ANSA_COLOR;31;MAT24 MAT_PIECEWISE_LINEAR_PLASTICITY;.831372559070587;.415686279
$535294;.141176477074623;1.;
$ANSA_COLOR;32;MAT20 MAT_RIGID;.839215695858002;.282352954149246;.05882352963089
$9;1.;
$ANSA_COLOR;33;MAT200 MAT_SPRING_ELASTIC;.847058832645416;.149019613862038;.9764
$70589637756;1.;
$ANSA_COLOR;40;MAT20 MAT_RIGID;.909803926944733;.219607844948769;.41176471114158
$6;1.;
*END
